11
	Energy:      18.4821203
C          0.00000        0.00000        0.00000
C         -0.91695        0.77427        0.72085
H         -1.64613        1.39108        0.20087
C         -0.90651        0.76413        2.11693
C          0.01939       -0.01949        2.80326
H         -1.62167        1.36826        2.66886
C          0.93578       -0.79388        2.09440
H          0.02660       -0.02668        3.88982
C          0.92648       -0.78465        0.69866
H          1.65820       -1.40554        2.62817
H          1.64671       -1.39359        0.15701
