15
	Energy:      18.4770360
C         -6.43879        1.68814        0.00010
C         -4.95394        1.89925       -0.00721
H         -6.90061        2.21814       -0.83925
H         -6.86627        2.05667        0.93800
H         -6.69408        0.62767       -0.09567
C         -4.43266        3.19940       -0.00360
H         -5.10131        4.05720       -0.00286
C         -3.05258        3.40828       -0.00096
C         -2.18229        2.31991        0.00082
H         -2.65699        4.42042        0.00054
C         -2.69152        1.02258        0.00144
H         -1.10791        2.48252        0.00299
C         -4.07172        0.81222       -0.00081
H         -2.01363        0.17316        0.00454
H         -4.45256       -0.20636        0.00192
