14
	Energy:      32.2729984
C          0.00000        0.00000        0.00000
C          0.84748       -0.89633        0.87983
C          0.59588       -0.82838        2.26417
H         -0.17282       -0.15511        2.64129
C          1.30675       -1.60781        3.17572
C          2.29379       -2.47354        2.71905
C          2.56677       -2.54988        1.35439
H          2.84827       -3.08488        3.42578
C          1.85260       -1.76592        0.43729
H          3.34233       -3.22688        1.00204
H          2.10462       -1.86171       -0.61499
H         -1.04212       -0.20039        0.28240
H          0.21060        1.03217        0.30880
H          1.08699       -1.53696        4.23716
