31
	Energy:      -2.5840965
C         -1.35295       -0.30436        0.65156
C          0.00000        0.00000        0.00000
C         -1.25857       -0.29229        2.18019
H         -1.71651       -1.28538        0.31884
H         -2.09675        0.43518        0.32758
C         -2.62383       -0.56829        2.81111
H         -0.88620        0.68177        2.51980
H         -0.53795       -1.04968        2.51113
C         -2.56048       -0.57043        4.33988
H         -2.99872       -1.53799        2.46078
H         -3.33953        0.19278        2.47685
C         -3.94610       -0.82902        4.93423
H         -2.17926        0.39406        4.69662
H         -1.86068       -1.34304        4.68001
C         -3.92337       -0.84897        6.46320
H         -4.32817       -1.78833        4.56358
H         -4.64017       -0.05232        4.59047
C         -5.32537       -1.10574        7.02054
H         -3.54514        0.10886        6.84056
H         -3.23749       -1.62993        6.81258
C         -5.33222       -1.14039        8.54776
H         -5.70422       -2.05916        6.63189
H         -6.00757       -0.32174        6.66959
C         -6.73049       -1.40166        9.08649
H         -7.11455       -2.36309        8.73027
H         -7.42545       -0.61688        8.77074
H         -4.96536       -0.18674        8.94465
H         -4.65575       -1.92453        8.90661
H          0.73909       -0.73371        0.34265
H          0.34985        0.98147        0.34137
H         -6.71851       -1.42502       10.18052
