7
	Energy:      -1.0528915
C         -1.35740       -0.20933        0.65837
C          0.00000        0.00000        0.00000
H         -2.07368        0.56244        0.35551
H         -1.78108       -1.18517        0.39677
H          0.68194       -0.78353        0.35007
H          0.41469        0.95283        0.34821
H         -1.25836       -0.16748        1.74809
