20
	Energy:      25.0805878
C          0.00530        2.42541        2.98566
C          0.01783        3.71406        3.60670
C          0.81719        4.73478        3.08691
H          1.43024        4.55878        2.20649
C          0.83416        5.98975        3.69927
C          0.05247        6.22502        4.83039
H          1.45766        6.78269        3.29452
C         -0.74749        5.20736        5.34998
H          0.06703        7.20173        5.30741
C         -0.76531        3.95207        4.73862
H         -1.35650        5.39033        6.23140
H         -1.39020        3.16331        5.15006
C         -0.00032        1.33941        2.47113
C          0.00000       -0.00000        1.86302
Si         0.00000        0.00000        0.00000
H         -0.87609       -0.55483        2.21766
H          0.87946       -0.55067        2.21594
H         -1.23734        0.62309       -0.53985
H          0.05900       -1.39793       -0.50331
H          1.18048        0.72552       -0.54011
