15
	Energy:      16.6083534
C         -2.20379        0.50639        1.31495
C         -3.40945        0.78130        2.03402
C         -4.63975        0.75406        1.37293
H         -4.68865        0.52475        0.31128
C         -5.81667        1.02196        2.07499
C         -5.76463        1.31710        3.43726
H         -6.77310        1.00024        1.55915
C         -4.53708        1.34494        4.09912
H         -6.68118        1.52548        3.98337
C         -3.35936        1.07722        3.39824
H         -4.49650        1.57491        5.16061
C         -1.19359        0.27489        0.70764
C          0.00000        0.00000        0.00000
H          0.91898       -0.21657        0.52657
H         -2.40641        1.10075        3.92109