16
	Energy:      -1.6619608
C         -1.36277       -0.24796        0.65628
C          0.00000        0.00000        0.00000
C         -1.25495       -0.23588        2.18312
H         -1.76678       -1.21429        0.32787
H         -2.07773        0.52074        0.33552
C         -2.61556       -0.47293        2.83810
H         -0.85039        0.72781        2.51571
H         -0.55070       -1.01166        2.50762
C         -2.51252       -0.46716        4.35493
H         -3.02503       -1.43511        2.50923
H         -3.32093        0.30477        2.52281
H         -1.84046       -1.25701        4.70538
H         -2.13386        0.49326        4.71894
H          0.70826       -0.76424        0.34155
H          0.39235        0.96532        0.34144
H         -3.49710       -0.63572        4.80227
