22
	Energy:      -2.0537161
C         -1.36857       -0.23375        0.64847
C          0.00000        0.00000        0.00000
C         -1.27992       -0.21477        2.17669
H         -1.77657       -1.19878        0.32097
H         -2.07536        0.53802        0.31687
C         -2.65467       -0.44828        2.80564
H         -0.88029        0.75016        2.51119
H         -0.58239       -0.99035        2.51557
C         -2.58886       -0.43453        4.33334
H         -3.05344       -1.41182        2.46565
H         -3.35004        0.32764        2.46255
C         -3.97194       -0.66388        4.94353
H         -2.18947        0.52735        4.67691
H         -1.89914       -1.21392        4.67958
H          0.69805       -0.77293        0.34282
H          0.40213        0.96078        0.34256
C         -3.92322       -0.65936        6.46267
H         -4.37563       -1.62352        4.60021
H         -4.66193        0.11764        4.60418
H         -3.26932       -1.45359        6.83660
H         -3.55290        0.29872        6.84086
H         -4.92460       -0.82251        6.87347
