25
	Energy:      -2.2818355
C         -1.35519       -0.28445        0.65720
C          0.00000        0.00000        0.00000
C         -1.24511       -0.27170        2.18387
H         -1.73428       -1.26060        0.32809
H         -2.09030        0.46575        0.33833
C         -2.59947       -0.53983        2.84237
H         -0.86189        0.70065        2.51661
H         -0.52289       -1.03173        2.50591
C         -2.48623       -0.53611        4.36777
H         -2.98707       -1.50895        2.50536
H         -3.31933        0.22447        2.52522
C         -3.84254       -0.79033        5.02754
H         -2.08970        0.42948        4.70457
H         -1.77305       -1.30681        4.68462
C         -3.72730       -0.79232        6.55168
H         -4.24201       -1.75380        4.68808
H         -4.55422       -0.01695        4.71378
C         -5.07462       -1.03730        7.21211
H         -3.32744        0.16839        6.89648
H         -3.02369       -1.57000        6.87080
H         -5.79241       -0.25680        6.94019
H         -5.48869       -2.00513        6.91183
H          0.72882       -0.74470        0.34143
H          0.36623        0.97561        0.34128
H         -4.96846       -1.03643        8.30145
