28
	Energy:      -2.4857109
C         -1.35578       -0.28377        0.65613
C          0.00000        0.00000        0.00000
C         -1.24894       -0.26774        2.18306
H         -1.73384       -1.26078        0.32840
H         -2.09084        0.46533        0.33445
C         -2.60561       -0.53382        2.83753
H         -0.86638        0.70520        2.51465
H         -0.52796       -1.02741        2.50872
C         -2.49985       -0.52549        4.36342
H         -2.99199       -1.50388        2.50190
H         -3.32411        0.22953        2.51487
C         -3.86145       -0.77149        5.01556
H         -2.10117        0.43946        4.69932
H         -1.79178       -1.29829        4.68660
C         -3.75686       -0.77180        6.54150
H         -4.26391       -1.73330        4.67513
H         -4.56665        0.00542        4.69586
C         -5.12103       -1.00197        7.19145
H         -3.34470        0.18576        6.88238
H         -3.05981       -1.55588        6.86159
H          0.72819       -0.74514        0.34178
H          0.36657        0.97547        0.34126
C         -5.02152       -1.01014        8.70849
H         -5.53873       -1.95740        6.85335
H         -5.81842       -0.21503        6.88131
H         -4.35849       -1.80987        9.05369
H         -4.63382       -0.05683        9.08157
H         -6.00884       -1.17231        9.15214
