327
	Energy:    5049.6565468
Si       -10.61542        0.01507        0.01808
Si        -5.34793       -5.29618       -5.31271
Si        -5.30302       -5.26104       -0.01129
Si        -5.22952       -5.26020        5.23544
Si        -5.29267       -0.01691       -5.27836
Si        -5.30229        0.01305        0.01137
Si        -5.29020        0.03584        5.29517
Si        -5.23733        5.24033       -5.24137
Si        -5.28310        5.29133        0.02786
Si        -5.32038        5.33616        5.32303
Si        -0.01824      -10.51680        0.04892
Si        -0.04835       -5.28338       -5.26631
Si        -0.01486       -5.24158        0.02116
Si         0.01887       -5.26329        5.30556
Si         0.00342       -0.02484      -10.60025
Si        -0.00409       -0.00678       -5.28747
Si        -0.00575        0.00782        0.00882
Si        -0.00661        0.01444        5.30486
Si        -0.01244        0.01757       10.61758
Si         0.03083        5.27297       -5.28689
Si         0.00226        5.29185       -0.00157
Si        -0.02547        5.29335        5.28383
Si         0.00957       10.60485       -0.01119
Si         5.19643       -5.30357       -5.19480
Si         5.26982       -5.28455        0.05030
Si         5.32217       -5.28944        5.35222
Si         5.27849       -0.00350       -5.27730
Si         5.29023       -0.00512        0.00485
Si         5.28275       -0.01291        5.29323
Si         5.32477        5.29992       -5.32580
Si         5.28755        5.27514       -0.03194
Si         5.24366        5.24435        5.23627
Si        10.60278       -0.02140       -0.00544
Si       -10.58516       -2.62074       -2.62989
Si       -10.53945       -2.76992        2.77922
Si       -10.54757        2.78087       -2.75594
Si       -10.56946        2.66091        2.65712
Si        -5.31052       -7.89244       -2.63620
Si        -5.22594       -7.94962        2.58806
Si        -5.29391       -2.63575       -7.92617
Si        -5.31206       -2.62399       -2.63271
Si        -5.30489       -2.63323        2.65718
Si        -5.28278       -2.61793        7.90961
Si        -5.28433        2.61093       -7.90867
Si        -5.30089        2.65074       -2.63900
Si        -5.29729        2.65472        2.65149
Si        -5.28151        2.66453        7.93555
Si        -5.27778        7.91078       -2.61594
Si        -5.27355        7.94073        2.64492
Si        -0.07627       -7.87577       -2.60449
Si         0.03768       -7.87172        2.65745
Si        -0.01621       -2.65201       -7.93512
Si        -0.01144       -2.63299       -2.63404
Si        -0.00871       -2.62241        2.66303
Si        -0.00257       -2.62010        7.96306
Si         0.01038        2.61827       -7.94797
Si        -0.00134        2.64086       -2.64240
Si        -0.00165        2.65127        2.64930
Si        -0.01186        2.64961        7.95504
Si         0.01355        7.94198       -2.64123
Si        -0.00141        7.95186        2.62837
Si         5.16997       -7.99283       -2.53504
Si         5.27747       -7.89611        2.68892
Si         5.26270       -2.66879       -7.87978
Si         5.28237       -2.66453       -2.62843
Si         5.29198       -2.63221        2.65912
Si         5.27744       -2.61820        7.95287
Si         5.27838        2.61728       -7.92744
Si         5.29365        2.62724       -2.64502
Si         5.29831        2.64427        2.64404
Si         5.28408        2.62518        7.91312
Si         5.28544        7.91543       -2.65787
Si         5.29057        7.90512        2.60171
Si        10.51362       -2.82469       -2.75014
Si        10.56644       -2.64492        2.65221
Si        10.56489        2.61628       -2.65233
Si        10.54561        2.75795        2.75684
Si        -7.95016       -2.62511       -5.27055
Si        -7.96078       -2.62088        0.00925
Si        -7.90455       -2.61682        5.29103
Si        -7.91322        2.62043       -5.28011
Si        -7.95342        2.64703        0.01611
Si        -7.93185        2.66385        5.28628
Si        -2.68392       -7.90439       -5.26241
Si        -2.65396       -7.86254       -0.02623
Si        -2.58002       -7.95749        5.22076
Si        -2.65294       -2.65211      -10.56028
Si        -2.65773       -2.63442       -5.28699
Si        -2.65904       -2.62248        0.01425
Si        -2.65087       -2.63347        5.30895
Si        -2.76977       -2.77269       10.54155
Si        -2.75926        2.75294      -10.54307
Si        -2.64429        2.64122       -5.29573
Si        -2.64749        2.65030        0.00439
Si        -2.64782        2.65553        5.30006
Si        -2.65179        2.66304       10.57193
Si        -2.60381        7.90190       -5.29023
Si        -2.62878        7.95078        0.00180
Si        -2.64355        7.94180        5.27408
Si         2.53674       -7.98535       -5.17715
Si         2.60867       -7.88305        0.08214
Si         2.64904       -7.88661        5.31886
Si         2.75170       -2.82263      -10.51313
Si         2.63040       -2.66456       -5.28011
Si         2.63823       -2.63278        0.01455
Si         2.63858       -2.62215        5.31452
Si         2.63672       -2.61534       10.58847
Si         2.65035        2.61348      -10.56417
Si         2.64499        2.62630       -5.29269
Si         2.64423        2.64187        0.00221
Si         2.64239        2.65367        5.30166
Si         2.76047        2.78533       10.54825
Si         2.65569        7.91429       -5.28677
Si         2.64075        7.94309       -0.01485
Si         2.61715        7.91393        5.27659
Si         7.88115       -2.66961       -5.26045
Si         7.93808       -2.65040        0.01655
Si         7.93310       -2.62815        5.29501
Si         7.92752        2.61818       -5.27912
Si         7.94965        2.62124       -0.01161
Si         7.91207        2.61586        5.28307
Si        -7.95494       -5.25173       -2.63661
Si        -7.89937       -5.29862        2.62061
Si        -7.95979        0.00833       -2.62253
Si        -7.95522        0.01714        2.64848
Si        -7.90732        5.29309       -2.60871
Si        -7.92955        5.29265        2.65233
Si        -2.68055      -10.51178       -2.61696
Si        -2.33290      -10.53166        2.31110
Si        -2.67132       -5.27363       -7.91914
Si        -2.67309       -5.25256       -2.63661
Si        -2.64991       -5.27298        2.65598
Si        -2.61141       -5.30282        7.89969
Si        -2.63690       -0.01165       -7.94527
Si        -2.65251        0.00823       -2.63753
Si        -2.65186        0.01225        2.65578
Si        -2.64258        0.01782        7.95871
Si        -2.60450        5.27475       -7.91147
Si        -2.64135        5.29593       -2.64490
Si        -2.64284        5.30069        2.64445
Si        -2.64887        5.29455        7.93126
Si        -2.75540       10.54016       -2.77568
Si        -2.63589       10.57390        2.63515
Si         2.24502      -10.56239       -2.27107
Si         2.65463      -10.49279        2.69583
Si         2.58231       -5.34217       -7.86275
Si         2.61820       -5.29542       -2.61487
Si         2.64364       -5.25411        2.67679
Si         2.64507       -5.24650        7.95996
Si         2.63234       -0.02252       -7.94069
Si         2.64012       -0.00748       -2.63814
Si         2.64141        0.00987        2.65431
Si         2.62744        0.01183        7.96138
Si         2.65412        5.25611       -7.93385
Si         2.64733        5.28259       -2.64751
Si         2.64641        5.29807        2.64115
Si         2.61176        5.29698        7.90719
Si         2.65495       10.55659       -2.65745
Si         2.77491       10.54245        2.75301
Si         7.86166       -5.34597       -2.57982
Si         7.92799       -5.26652        2.67292
Si         7.94252       -0.02141       -2.63228
Si         7.94891       -0.00762        2.63606
Si         7.93367        5.25826       -2.65607
Si         7.91293        5.27886        2.60241
Si        -6.62673       -3.91956       -6.59792
Si        -6.63728       -3.94112       -1.29496
Si        -6.64141       -4.00130        4.00202
Si        -6.60592        1.31489       -6.59685
Si        -6.62787        1.33428       -1.31329
Si        -6.62336        1.31812        3.96918
Si        -6.59508        6.60786       -1.30680
Si        -6.59776        6.61624        3.94114
Si        -1.35692       -9.20213       -1.29968
Si        -1.27876       -9.28540        3.90467
Si        -1.32523       -3.96249       -6.60645
Si        -1.34115       -3.94222       -1.31052
Si        -1.32745       -3.95457        3.98441
Si        -1.32154       -3.98742        9.25935
Si        -1.32352        1.31489       -6.61785
Si        -1.32730        1.32717       -1.31718
Si        -1.32540        1.33290        3.97492
Si        -1.32141        1.32947        9.29553
Si        -1.29913        6.59004       -6.60318
Si        -1.31752        6.62081       -1.32522
Si        -1.30384        6.62819        3.95613
Si         3.84597       -9.30926       -1.22983
Si         3.98945       -9.22551        4.03515
Si         3.96900       -4.04403       -6.61133
Si         3.95305       -3.97574       -1.29985
Si         3.97414       -3.94539        4.00061
Si         3.97663       -3.94428        9.29528
Si         3.95744        1.27975       -6.61439
Si         3.96436        1.31386       -1.31747
Si         3.96875        1.33203        3.97588
Si         3.97642        1.33428        9.27220
Si         3.94692        6.58074       -6.60689
Si         3.96349        6.61058       -1.31345
Si         3.99766        6.64900        3.98707
Si         9.22733       -4.02944       -1.29721
Si         9.26940       -3.96409        3.99797
Si         9.28444        1.29131       -1.31724
Si         9.26548        1.31548        3.97879
Si        -9.29167       -3.95106       -3.96853
Si        -9.25867       -3.98467        1.32997
Si        -9.27153        1.32963       -3.97167
Si        -9.29312        1.32719        1.32683
Si        -4.01858       -9.23941       -3.96463
Si        -3.92238       -9.26954        1.27497
Si        -3.99673       -3.97244       -9.26182
Si        -3.99801       -3.94709       -3.96781
Si        -3.97969       -3.95403        1.33424
Si        -3.99429       -4.00246        6.64595
Si        -3.98031        1.31044       -9.26211
Si        -3.97519        1.32895       -3.96525
Si        -3.97200        1.33200        1.32930
Si        -3.96410        1.31871        6.62744
Si        -3.98817        6.64575       -3.99627
Si        -3.95548        6.62711        1.30531
Si        -3.93858        6.61730        6.59946
Si         1.21840       -9.29488       -3.86685
Si         1.31321       -9.22220        1.36642
Si         1.29832       -4.02715       -9.22742
Si         1.30264       -3.97536       -3.94963
Si         1.31689       -3.94248        1.34610
Si         1.30152       -3.94077        6.63972
Si         1.31597        1.28849       -9.28295
Si         1.31844        1.31288       -3.96245
Si         1.32017        1.32818        1.32931
Si         1.31762        1.33704        6.62944
Si         1.31228        6.60944       -3.96381
Si         1.32577        6.62192        1.31723
Si         1.30906        6.61096        6.59490
Si         6.61279       -4.04508       -3.96679
Si         6.61047       -3.96146        1.32601
Si         6.60640       -3.91114        6.62990
Si         6.61562        1.28052       -3.95717
Si         6.62033        1.31795        1.32311
Si         6.60104        1.31999        6.60565
Si         6.60576        6.58190       -3.94892
Si         6.60368        6.59330        1.29711
Si        -9.30018       -1.29777       -1.29726
Si        -9.26259       -1.31503        3.99103
Si        -9.26488        3.99379       -1.30790
Si        -9.26867        3.99525        3.98492
Si        -3.97687       -6.58562       -6.59320
Si        -3.99052       -6.57465       -1.30888
Si        -3.98106       -6.66619        3.98548
Si        -3.97031       -1.30002       -6.61481
Si        -3.97984       -1.30657       -1.31265
Si        -3.97517       -1.31277        3.98036
Si        -3.98233       -1.31607        9.26721
Si        -3.99138        3.99141       -6.64704
Si        -3.97007        3.97505       -1.32038
Si        -3.97227        3.98312        3.97505
Si        -3.98025        3.99701        9.27144
Si        -3.97125        9.26689       -1.32191
Si        -3.97056        9.28109        3.97096
Si         1.27900       -6.65325       -6.54151
Si         1.28988       -6.59313       -1.28389
Si         1.31653       -6.57945        3.99494
Si         1.31393       -1.34114       -6.60862
Si         1.31473       -1.31882       -1.31134
Si         1.31774       -1.30518        3.98266
Si         1.30281       -1.29513        9.30204
Si         1.31034        3.94314       -6.61951
Si         1.32217        3.96335       -1.32133
Si         1.32292        3.97717        3.97088
Si         1.31189        3.99757        9.26557
Si         1.32147        9.28444       -1.32293
Si         1.32216        9.26903        3.96994
Si         6.53824       -6.65984       -1.27909
Si         6.60520       -6.57632        3.98175
Si         6.58289       -1.35788       -6.58081
Si         6.61092       -1.34004       -1.31314
Si         6.61920       -1.29585        3.97047
Si         6.60101        3.91344       -6.60180
Si         6.62025        3.94532       -1.31138
Si         6.64946        3.99560        3.99025
Si        -6.63428       -6.57425       -3.93669
Si        -6.58372       -6.61945        1.32218
Si        -6.63408       -1.28982       -3.95120
Si        -6.62848       -1.31097        1.33469
Si        -6.59896       -1.30724        6.60602
Si        -6.64730        4.00068       -3.99113
Si        -6.62025        3.97092        1.31224
Si        -6.60092        3.95887        6.60478
Si        -1.35108       -6.58650       -3.94803
Si        -1.32460       -6.58178        1.33316
Si        -1.31553       -6.62622        6.58164
Si        -1.31648       -1.32828       -9.28016
Si        -1.33281       -1.31664       -3.95997
Si        -1.33034       -1.30881        1.33487
Si        -1.32870       -1.31019        6.63169
Si        -1.30809        3.96596       -9.26411
Si        -1.32163        3.96582       -3.96922
Si        -1.32157        3.97248        1.32335
Si        -1.30873        3.97287        6.62199
Si        -1.30602        9.25820       -3.98768
Si        -1.30599        9.29302        1.30542
Si         3.94103       -6.70040       -3.94099
Si         3.95447       -6.59056        1.35341
Si         3.94781       -6.56653        6.64109
Si         3.96857       -1.36613       -9.24284
Si         3.95897       -1.34281       -3.95693
Si         3.96389       -1.31513        1.33465
Si         3.95634       -1.28597        6.63546
Si         3.98177        3.94916       -9.26849
Si         3.97282        3.95564       -3.97284
Si         3.97085        3.96802        1.32149
Si         3.99438        4.00475        6.64717
Si         3.98602        9.25495       -3.98836
Si         3.98704        9.26041        1.30381
Si         9.24463       -1.36674       -3.96684
Si         9.28324       -1.32483        1.31506
Si         9.26841        3.95130       -3.98358
Si         9.26558        3.97011        1.30590
C         -1.23409      -11.54454        1.14204
C          1.06477      -11.55295       -1.16516
C         -0.60773      -12.69118        1.89210
C          1.76831      -12.70572       -0.49916
H         -1.91518      -12.01416        0.42047
H         -1.21782      -13.53970        2.18784
H          0.45029      -12.73905        2.12108
H          1.24425      -13.64958       -0.37475
H          2.78069      -12.63516       -0.11622
H          0.34700      -12.01531       -1.85535
