318
	Energy:    5003.9135564
Si       -10.60693       -0.00279        0.00355
Si        -5.32175       -5.31577       -5.32377
Si        -5.28739       -5.27999       -0.02526
Si        -5.23312       -5.25226        5.23520
Si        -5.28320       -0.02543       -5.28403
Si        -5.29266       -0.00065        0.00103
Si        -5.28347        0.02280        5.28452
Si        -5.23976        5.23829       -5.23943
Si        -5.28379        5.28144        0.02697
Si        -5.32125        5.31866        5.32131
Si        -0.20229      -10.57615        0.20526
Si        -0.02493       -5.28488       -5.28116
Si         0.00540       -5.27700       -0.00351
Si         0.02737       -5.27895        5.28929
Si         0.00234       -0.00261      -10.60612
Si         0.00136        0.00017       -5.29275
Si         0.00090        0.00116       -0.00004
Si         0.00006        0.00036        5.29353
Si        -0.00229       -0.00077       10.60779
Si         0.02650        5.28217       -5.28360
Si        -0.00017        5.29081        0.00007
Si        -0.02686        5.28241        5.28368
Si        -0.00091       10.60491       -0.00013
Si         5.23655       -5.24800       -5.23499
Si         5.28304       -5.28385        0.02654
Si         5.32591       -5.31369        5.32342
Si         5.28427        0.02406       -5.28372
Si         5.29361        0.00116       -0.00077
Si         5.28515       -0.02344        5.28383
Si         5.32091        5.31991       -5.32132
Si         5.28351        5.28312       -0.02687
Si         5.23960        5.24020        5.23942
Si        10.60698       -0.00064       -0.00207
Si       -10.56897       -2.64236       -2.64453
Si       -10.53650       -2.77734        2.76561
Si       -10.54273        2.76397       -2.76328
Si       -10.56683        2.64157        2.64734
Si        -5.28670       -7.91745       -2.65199
Si        -5.25138       -7.93573        2.60934
Si        -5.27671       -2.64617       -7.93208
Si        -5.29435       -2.64132       -2.64409
Si        -5.29576       -2.64523        2.64440
Si        -5.28111       -2.62013        7.90528
Si        -5.28329        2.61066       -7.90852
Si        -5.29671        2.64251       -2.64293
Si        -5.29319        2.64125        2.64466
Si        -5.27858        2.64544        7.93017
Si        -5.28437        7.90587       -2.61068
Si        -5.27876        7.92762        2.64848
Si        -0.00956       -7.94795       -2.62188
Si         0.03969       -7.90283        2.65024
Si        -0.00530       -2.63654       -7.94676
Si         0.00250       -2.64019       -2.64580
Si         0.00147       -2.64002        2.64541
Si         0.00668       -2.63462        7.95006
Si         0.00815        2.63310       -7.94847
Si        -0.00008        2.64351       -2.64425
Si         0.00058        2.64351        2.64452
Si        -0.00795        2.63368        7.94898
Si         0.00645        7.94651       -2.63429
Si        -0.00754        7.94664        2.63421
Si         5.27126       -7.92004       -2.60228
Si         5.27422       -7.92654        2.65135
Si         5.28305       -2.61754       -7.90501
Si         5.29682       -2.64493       -2.64336
Si         5.29605       -2.63950        2.64349
Si         5.28229       -2.64182        7.93202
Si         5.27871        2.64633       -7.92983
Si         5.29351        2.64294       -2.64432
Si         5.29724        2.64437        2.64309
Si         5.28416        2.61290        7.90848
Si         5.27775        7.92900       -2.64866
Si         5.28333        7.90764        2.61061
Si        10.53978       -2.77110       -2.76486
Si        10.56820       -2.64437        2.64290
Si        10.56704        2.64394       -2.64655
Si        10.54314        2.76693        2.76339
Si        -7.93087       -2.64438       -5.28055
Si        -7.94869       -2.63616       -0.00499
Si        -7.90373       -2.62064        5.28275
Si        -7.90833        2.61045       -5.28341
Si        -7.94860        2.63219        0.00864
Si        -7.92963        2.64494        5.27922
Si        -2.64918       -7.92810       -5.27169
Si        -2.64782       -7.90336       -0.03716
Si        -2.60670       -7.93520        5.25391
Si        -2.64208       -2.64687      -10.56670
Si        -2.64238       -2.64101       -5.29455
Si        -2.64403       -2.64053        0.00001
Si        -2.64283       -2.64471        5.29724
Si        -2.76385       -2.77583       10.53800
Si        -2.76359        2.76450      -10.54263
Si        -2.64298        2.64291       -5.29672
Si        -2.64415        2.64302       -0.00009
Si        -2.64408        2.64175        5.29366
Si        -2.64661        2.64306       10.56729
Si        -2.61144        7.90623       -5.28376
Si        -2.63479        7.94617        0.00708
Si        -2.64887        7.92809        5.27827
Si         2.60439       -7.92056       -5.26901
Si         2.62430       -7.94744        0.01185
Si         2.65464       -7.91588        5.28901
Si         2.76562       -2.77257      -10.53857
Si         2.64443       -2.64543       -5.29560
Si         2.64717       -2.63969       -0.00127
Si         2.64569       -2.63979        5.29561
Si         2.64634       -2.63980       10.57024
Si         2.64630        2.64251      -10.56682
Si         2.64441        2.64245       -5.29328
Si         2.64463        2.64399        0.00032
Si         2.64354        2.64398        5.29697
Si         2.76407        2.76645       10.54296
Si         2.64780        7.92853       -5.27846
Si         2.63372        7.94698       -0.00715
Si         2.61035        7.90729        5.28367
Si         7.90605       -2.61705       -5.28216
Si         7.94812       -2.63504        0.00624
Si         7.93372       -2.64363        5.27771
Si         7.92989        2.64681       -5.27881
Si         7.94886        2.63455       -0.00820
Si         7.90918        2.61309        5.28329
Si        -7.93363       -5.27320       -2.65092
Si        -7.89863       -5.29820        2.61147
Si        -7.94898       -0.00716       -2.63282
Si        -7.94811        0.00304        2.63622
Si        -7.90825        5.28215       -2.60990
Si        -7.93013        5.27564        2.64927
Si        -2.67605      -10.55248       -2.60414
Si        -2.43873      -10.56660        2.44180
Si        -2.64681       -5.27878       -7.92820
Si        -2.64417       -5.28205       -2.64921
Si        -2.64143       -5.28926        2.64343
Si        -2.60928       -5.29715        7.90063
Si        -2.63260       -0.00700       -7.94892
Si        -2.64381        0.00131       -2.64444
Si        -2.64396       -0.00090        2.64493
Si        -2.63506        0.00405        7.94907
Si        -2.61044        5.28283       -7.90804
Si        -2.64362        5.29490       -2.64329
Si        -2.64394        5.29101        2.64394
Si        -2.64911        5.27662        7.93010
Si        -2.76623       10.54023       -2.76527
Si        -2.64579       10.56515        2.64485
Si         2.69831      -10.55770       -2.69552
Si         2.60720      -10.55143        2.67889
Si         2.61028       -5.29204       -7.90223
Si         2.64382       -5.29667       -2.64208
Si         2.65122       -5.28101        2.64594
Si         2.65315       -5.27113        7.93541
Si         2.63563        0.00424       -7.94787
Si         2.64543        0.00004       -2.64471
Si         2.64543        0.00230        2.64455
Si         2.63402       -0.00515        7.94973
Si         2.64863        5.27680       -7.93012
Si         2.64361        5.29178       -2.64384
Si         2.64331        5.29586        2.64339
Si         2.61014        5.28408        7.90802
Si         2.64400       10.56573       -2.64515
Si         2.76438       10.54121        2.76507
Si         7.90394       -5.29103       -2.60885
Si         7.93021       -5.27674        2.64831
Si         7.94857        0.00522       -2.63522
Si         7.94992       -0.00502        2.63306
Si         7.92987        5.27774       -2.64919
Si         7.90808        5.28474        2.60993
Si        -6.60232       -3.93718       -6.60454
Si        -6.62192       -3.95731       -1.30757
Si        -6.63981       -4.00135        3.99181
Si        -6.59919        1.30637       -6.59950
Si        -6.62142        1.32091       -1.32071
Si        -6.61901        1.30367        3.95991
Si        -6.59919        6.59723       -1.30494
Si        -6.60121        6.59872        3.94174
Si        -1.30632       -9.26784       -1.31291
Si        -1.30646       -9.25236        3.95058
Si        -1.30563       -3.95984       -6.61728
Si        -1.32115       -3.95991       -1.32429
Si        -1.31936       -3.96638        3.97049
Si        -1.31376       -3.98919        9.25718
Si        -1.32075        1.32136       -6.62139
Si        -1.32233        1.32268       -1.32261
Si        -1.32105        1.32073        3.96733
Si        -1.31483        1.31212        9.28963
Si        -1.30562        6.59791       -6.59884
Si        -1.32194        6.61972       -1.32153
Si        -1.30756        6.61778        3.95876
Si         3.96662       -9.26940       -1.30242
Si         3.97549       -9.26154        3.98348
Si         3.99220       -3.99899       -6.64207
Si         3.96940       -3.96893       -1.32197
Si         3.97727       -3.96382        3.97446
Si         3.98277       -3.96975        9.27375
Si         3.95956        1.30501       -6.61912
Si         3.96745        1.32159       -1.32158
Si         3.97018        1.32433        3.96961
Si         3.97948        1.31675        9.26463
Si         3.94110        6.59986       -6.60113
Si         3.95841        6.61847       -1.30739
Si         3.99225        6.64565        3.99238
Si         9.26042       -3.98447       -1.31409
Si         9.27029       -3.97586        3.97690
Si         9.28945        1.31285       -1.31483
Si         9.26498        1.31666        3.97837
Si        -9.27228       -3.97234       -3.98073
Si        -9.25548       -3.99076        1.31573
Si        -9.26418        1.31426       -3.97845
Si        -9.28896        1.31061        1.31579
Si        -3.98096       -9.26312       -3.97263
Si        -3.94782       -9.25289        1.30932
Si        -3.97572       -3.97841       -9.26846
Si        -3.97301       -3.96536       -3.97546
Si        -3.96879       -3.96689        1.32116
Si        -3.98993       -4.00083        6.64160
Si        -3.97821        1.31421       -9.26415
Si        -3.96918        1.32284       -3.96937
Si        -3.96666        1.32023        1.32183
Si        -3.95905        1.30418        6.61977
Si        -3.99293        6.64421       -3.99241
Si        -3.95906        6.61730        1.30737
Si        -3.94187        6.59921        6.60098
Si         1.30490       -9.26992       -3.96402
Si         1.31566       -9.26732        1.30895
Si         1.31519       -3.98599       -9.25888
Si         1.32339       -3.96944       -3.96784
Si         1.32598       -3.95940        1.32272
Si         1.30947       -3.95576        6.62351
Si         1.31493        1.31138       -9.28890
Si         1.32199        1.32110       -3.96690
Si         1.32329        1.32318        1.32289
Si         1.32160        1.32241        6.62198
Si         1.30684        6.61800       -3.95881
Si         1.32124        6.62020        1.32153
Si         1.30488        6.59867        6.59877
Si         6.64346       -3.99848       -3.99095
Si         6.61897       -3.95832        1.30692
Si         6.60648       -3.93461        6.60366
Si         6.61951        1.30550       -3.95932
Si         6.62208        1.32284        1.32102
Si         6.60044        1.30884        6.59951
Si         6.60058        6.60033       -3.94181
Si         6.59857        6.59934        1.30494
Si        -9.28976       -1.31470       -1.31107
Si        -9.26072       -1.32338        3.97929
Si        -9.26376        3.97780       -1.31275
Si        -9.26886        3.97498        3.97912
Si        -3.94057       -6.60008       -6.59870
Si        -3.96907       -6.59736       -1.32115
Si        -3.98341       -6.65294        3.98573
Si        -3.95821       -1.30558       -6.62028
Si        -3.96742       -1.31975       -1.32200
Si        -3.96820       -1.32434        3.96947
Si        -3.97785       -1.32235        9.26197
Si        -3.99246        3.99214       -6.64588
Si        -3.96926        3.96795       -1.32213
Si        -3.97141        3.96927        3.97169
Si        -3.97868        3.97596        9.26911
Si        -3.97999        9.26178       -1.31422
Si        -3.97841        9.26733        3.97773
Si         1.30660       -6.60762       -6.59134
Si         1.32205       -6.61671       -1.31996
Si         1.32348       -6.59632        3.97117
Si         1.32279       -1.32338       -6.62020
Si         1.32384       -1.32053       -1.32279
Si         1.32329       -1.31874        3.96848
Si         1.31256       -1.31266        9.29083
Si         1.30759        3.95766       -6.61919
Si         1.32142        3.96610       -1.32135
Si         1.32244        3.96893        3.96933
Si         1.31326        3.97977        9.26383
Si         1.31274        9.28817       -1.31361
Si         1.31359        9.26273        3.97910
Si         6.59340       -6.60659       -1.30482
Si         6.60103       -6.59801        3.94242
Si         6.59835       -1.31087       -6.59763
Si         6.62124       -1.32238       -1.32204
Si         6.62159       -1.30357        3.95900
Si         6.60082        3.94005       -6.60107
Si         6.61926        3.95863       -1.30781
Si         6.64621        3.99409        3.99227
Si        -6.60802       -6.59426       -3.94907
Si        -6.58306       -6.61629        1.31276
Si        -6.62018       -1.30507       -3.95945
Si        -6.62059       -1.32389        1.32254
Si        -6.59674       -1.31330        6.59809
Si        -6.64601        3.99186       -3.99221
Si        -6.61919        3.95669        1.30806
Si        -6.60087        3.93871        6.60122
Si        -1.30559       -6.61795       -3.95512
Si        -1.31517       -6.60206        1.31738
Si        -1.31034       -6.61524        6.58528
Si        -1.31134       -1.31529       -9.28855
Si        -1.32083       -1.31954       -3.96768
Si        -1.32162       -1.32102        1.32280
Si        -1.32116       -1.32287        6.62176
Si        -1.31329        3.97858       -9.26363
Si        -1.32236        3.96835       -3.96916
Si        -1.32134        3.96565        1.32153
Si        -1.30767        3.95769        6.61936
Si        -1.31508        9.26212       -3.97926
Si        -1.31418        9.28785        1.31342
Si         3.98925       -6.65385       -3.98733
Si         3.95733       -6.61692        1.30755
Si         3.95152       -6.59218        6.61001
Si         3.97955       -1.32022       -9.26153
Si         3.96971       -1.32382       -3.96882
Si         3.96886       -1.31853        1.32175
Si         3.96085       -1.30305        6.62113
Si         3.97825        3.97605       -9.26904
Si         3.97143        3.97038       -3.97152
Si         3.96936        3.96932        1.32230
Si         3.99264        3.99383        6.64596
Si         3.97697        9.26822       -3.97799
Si         3.97852        9.26307        1.31407
Si         9.26240       -1.31923       -3.97899
Si         9.28973       -1.31329        1.31196
Si         9.26894        3.97700       -3.97867
Si         9.26384        3.98051        1.31294
O         -1.32085      -11.12044        1.32398
