     87
 i =        1, E =      -386.5124684762
 Si        14.5383237863       20.0000151817       19.9999656443
 Si        20.0000346005       14.5383290508       19.9999401390
 Si        20.0000688333       20.0000287290       14.5382692372
 Si        19.9999822743       19.9999419681       19.9999386737
 Si        20.0000178523       19.9999270308       25.4616507055
 Si        20.0000749070       25.4616486832       19.9999589663
 Si        25.4616871343       19.9999842948       19.9999985839
 Si        14.5598520331       17.2699176924       17.2700095252
 Si        14.5428135530       17.2787660089       22.7211576986
 Si        14.5428227657       22.7212107088       17.2787128625
 Si        14.5597843373       22.7299710714       22.7300213379
 Si        19.9993098355       17.2711164173       17.2710746151
 Si        20.0008279063       17.2711211577       22.7288333998
 Si        20.0007850833       22.7289361718       17.2710879093
 Si        19.9992925055       22.7288422523       22.7287523952
 Si        25.4572493453       17.2788427786       17.2786898117
 Si        25.4402726087       17.2699504927       22.7300314748
 Si        25.4402958912       22.7299336319       17.2699575445
 Si        25.4572598582       22.7212329373       22.7211402964
 Si        17.2700371520       17.2700329695       14.5596908925
 Si        17.2711779370       17.2711537102       19.9991890389
 Si        17.2788359562       17.2787553262       25.4571584631
 Si        17.2788464190       22.7212204687       14.5427208836
 Si        17.2711553784       22.7288288495       20.0007036904
 Si        17.2700518862       22.7300122760       25.4401950435
 Si        22.7212865957       17.2787618169       14.5427216747
 Si        22.7289174234       17.2711615280       20.0007058814
 Si        22.7299297701       17.2698828590       25.4401675346
 Si        22.7300232164       22.7300194672       14.5597667863
 Si        22.7289601092       22.7288646654       19.9991534959
 Si        22.7212303301       22.7211740147       25.4571797710
 Si        17.2700164576       14.5597572465       17.2698678706
 Si        17.2787439055       14.5427985853       22.7211554135
 Si        17.2712004426       19.9992186464       17.2711108566
 Si        17.2711278927       20.0007496605       22.7288242787
 Si        17.2788047643       25.4572238317       17.2787521959
 Si        17.2699492766       25.4401945631       22.7299299150
 Si        22.7212872262       14.5427578831       17.2787420365
 Si        22.7301173943       14.5597631550       22.7299046074
 Si        22.7289062576       20.0007430940       17.2711242234
 Si        22.7289037026       19.9992276260       22.7288629080
 Si        22.7301066183       25.4402205898       17.2699012345
 Si        22.7212165745       25.4572366077       22.7211708614
 Si        13.1848224826       21.3631408604       18.6368449031
 Si        18.6379547394       15.9055129667       18.6379280722
 Si        18.6205029217       15.9181657473       24.0817594740
 Si        18.6369069842       21.3631344847       13.1847796845
 Si        18.6349265213       21.3651189271       18.6348630844
 Si        18.6379627039       21.3620285380       24.0943981136
 Si        18.6368525755       26.8151687550       18.6367815153
 Si        24.0819073037       15.9181720697       18.6203834933
 Si        24.0911809012       15.9088582108       24.0911409306
 Si        24.0944894014       21.3620808206       18.6379077220
 Si        24.0818690285       21.3795926305       24.0818029633
 Si        15.9089307577       15.9088626629       15.9088085202
 Si        15.9182078295       15.9180987574       21.3795177634
 Si        15.9182007992       21.3795256225       15.9181019270
 Si        15.9055875362       21.3620469396       21.3620264169
 Si        21.3796088941       15.9181423529       15.9181142788
 Si        21.3621051976       15.9054690023       21.3620252860
 Si        21.3621160535       21.3621016858       15.9054297222
 Si        21.3652451851       21.3651439270       21.3650753922
 Si        21.3632221150       21.3630566549       26.8151199198
 Si        21.3631366776       26.8151807088       21.3630566432
 Si        26.8152169621       21.3631647001       21.3630824247
 Si        15.9055707354       18.6378804112       18.6378195799
 Si        15.9182082894       18.6204192774       24.0817775402
 Si        15.9181727173       24.0817979843       18.6204029024
 Si        15.9088841202       24.0911204180       24.0910848523
 Si        21.3632383470       13.1847881530       18.6368047549
 Si        21.3631522817       18.6368104635       13.1847924900
 Si        21.3651715571       18.6348662082       18.6348324572
 Si        21.3620758299       18.6379276831       24.0944522136
 Si        21.3620715913       24.0944789042       18.6378990113
 Si        21.3796081219       24.0818608684       24.0817715485
 Si        26.8152098162       18.6368156407       18.6368085019
 Si        13.1848341459       18.6368433332       21.3630577942
 Si        18.6368566383       13.1847904242       21.3630909188
 Si        18.6379931451       18.6379153396       15.9054594002
 Si        18.6348779409       18.6348697913       21.3650419587
 Si        18.6368842647       18.6368444643       26.8151325328
 Si        18.6204300878       24.0818275433       15.9180939783
 Si        18.6379090773       24.0944287264       21.3620047190
 Si        24.0818858644       18.6204586078       15.9181564834
 Si        24.0944898262       18.6379351679       21.3620200519
 Si        24.0912623739       24.0911175316       15.9088684169
 Si        24.0818575408       24.0818148895       21.3795406361
  