319
	Energy:    5021.6259016
Si       -10.61114       -0.00503        0.01152
Si        -5.33602       -5.29185       -5.33576
Si        -5.29334       -5.27112       -0.02830
Si        -5.21659       -5.29319        5.21382
Si        -5.28846       -0.01498       -5.28790
Si        -5.29897        0.00302        0.00307
Si        -5.28810        0.01346        5.28724
Si        -5.24006        5.24143       -5.23922
Si        -5.28590        5.28128        0.03002
Si        -5.32387        5.31565        5.32488
Si        -0.00231      -10.33864       -0.00303
Si        -0.02856       -5.27082       -5.29378
Si        -0.00152       -5.23003       -0.00196
Si         0.02552       -5.27302        5.28985
Si         0.01025       -0.00443      -10.61129
Si         0.00252        0.00332       -5.29911
Si        -0.00073        0.00654       -0.00087
Si        -0.00395        0.00115        5.29736
Si        -0.01165       -0.00878       10.60953
Si         0.02918        5.28157       -5.28576
Si         0.00006        5.28890        0.00020
Si        -0.02905        5.27944        5.28615
Si         0.00083       10.60179        0.00125
Si         5.21357       -5.29261       -5.21772
Si         5.29029       -5.27273        0.02439
Si         5.33294       -5.29569        5.33182
Si         5.28669        0.01404       -5.28894
Si         5.29751        0.00143       -0.00480
Si         5.28698       -0.01874        5.28615
Si         5.32405        5.31622       -5.32443
Si         5.28601        5.27972       -0.02961
Si         5.24015        5.23776        5.23960
Si        10.60968       -0.00821       -0.01319
Si       -10.57721       -2.63401       -2.64283
Si       -10.52649       -2.80448        2.76278
Si       -10.54761        2.76895       -2.75684
Si       -10.56890        2.63715        2.65451
Si        -5.29264       -7.89247       -2.66453
Si        -5.19230       -7.99976        2.56322
Si        -5.28618       -2.62630       -7.94265
Si        -5.30488       -2.62754       -2.64744
Si        -5.29834       -2.64995        2.64397
Si        -5.27588       -2.65048        7.89327
Si        -5.28363        2.61810       -7.91247
Si        -5.30046        2.64634       -2.64223
Si        -5.29757        2.63882        2.64867
Si        -5.28241        2.63823        7.93203
Si        -5.28358        7.90636       -2.60849
Si        -5.27959        7.92574        2.65185
Si        -0.04750       -7.84417       -2.64675
Si         0.04366       -7.84529        2.64174
Si        -0.00478       -2.63709       -7.95264
Si        -0.00033       -2.62573       -2.65275
Si        -0.00191       -2.62683        2.64992
Si         0.00256       -2.64037        7.94980
Si         0.01268        2.63323       -7.95323
Si         0.00054        2.64416       -2.64688
Si        -0.00120        2.64308        2.64620
Si        -0.01331        2.62999        7.95255
Si         0.00828        7.94445       -2.63416
Si        -0.00738        7.94340        2.63562
Si         5.18843       -8.00027       -2.56827
Si         5.28877       -7.89520        2.65951
Si         5.27370       -2.64882       -7.89606
Si         5.29610       -2.65046       -2.64678
Si         5.30262       -2.63024        2.64462
Si         5.28391       -2.63119        7.93981
Si         5.28182        2.63987       -7.93266
Si         5.29693        2.63831       -2.64931
Si         5.29978        2.64368        2.64157
Si         5.28294        2.61330        7.91178
Si         5.28050        7.92525       -2.65036
Si         5.28446        7.90375        2.60994
Si        10.52422       -2.80653       -2.76558
Si        10.57494       -2.63829        2.64005
Si        10.56826        2.63509       -2.65508
Si        10.54696        2.76469        2.75627
Si        -7.94306       -2.62646       -5.28541
Si        -7.95235       -2.63754       -0.00401
Si        -7.89507       -2.64955        5.27445
Si        -7.91318        2.61795       -5.28257
Si        -7.95323        2.63278        0.01373
Si        -7.93196        2.63915        5.28286
Si        -2.66464       -7.89232       -5.29288
Si        -2.64617       -7.84432       -0.04774
Si        -2.56699       -8.00071        5.18818
Si        -2.64394       -2.63356      -10.57715
Si        -2.64785       -2.62739       -5.30483
Si        -2.65246       -2.62588       -0.00027
Si        -2.64579       -2.65090        5.29616
Si        -2.76389       -2.80725       10.52428
Si        -2.75825        2.76939      -10.54723
Si        -2.64294        2.64649       -5.30011
Si        -2.64688        2.64401        0.00088
Si        -2.64861        2.63788        5.29727
Si        -2.65369        2.63439       10.56860
Si        -2.60948        7.90650       -5.28294
Si        -2.63445        7.94431        0.00891
Si        -2.64995        7.92483        5.28112
Si         2.56313       -7.99932       -5.19324
Si         2.64232       -7.84514        0.04273
Si         2.66078       -7.89534        5.28785
Si         2.76168       -2.80374      -10.52716
Si         2.64356       -2.64951       -5.29899
Si         2.65021       -2.62668       -0.00255
Si         2.64560       -2.63038        5.30199
Si         2.64172       -2.63872       10.57430
Si         2.65311        2.63789      -10.56925
Si         2.64797        2.63925       -5.29793
Si         2.64621        2.64323       -0.00155
Si         2.64227        2.64354        5.29943
Si         2.75764        2.76428       10.54659
Si         2.65088        7.92617       -5.27965
Si         2.63534        7.94354       -0.00745
Si         2.61036        7.90361        5.28438
Si         7.89287       -2.64976       -5.27722
Si         7.95009       -2.63994        0.00123
Si         7.94078       -2.63105        5.28259
Si         7.93135        2.63894       -5.28346
Si         7.95256        2.63041       -0.01436
Si         7.91247        2.61344        5.28190
Si        -7.94271       -5.26008       -2.65793
Si        -7.87980       -5.33278        2.59949
Si        -7.95633       -0.00034       -2.63023
Si        -7.95197       -0.00447        2.64062
Si        -7.91035        5.28502       -2.60572
Si        -7.93266        5.27385        2.65432
Si        -2.63838      -10.48717       -2.63877
Si        -2.22491      -10.66227        2.21976
Si        -2.65854       -5.25978       -7.94280
Si        -2.66076       -5.24606       -2.66085
Si        -2.64359       -5.27918        2.64045
Si        -2.60190       -5.33467        7.87665
Si        -2.63114       -0.00004       -7.95613
Si        -2.64784        0.00844       -2.64763
Si        -2.64892        0.00093        2.64768
Si        -2.64112       -0.00635        7.95074
Si        -2.60692        5.28531       -7.90985
Si        -2.64367        5.29505       -2.64318
Si        -2.64584        5.28872        2.64645
Si        -2.65295        5.27201        7.93328
Si        -2.76406       10.53930       -2.76327
Si        -2.64483       10.56228        2.64726
Si         2.22020      -10.66202       -2.22595
Si         2.63372      -10.48908        2.63264
Si         2.59889       -5.33219       -7.88059
Si         2.64054       -5.27888       -2.64438
Si         2.65771       -5.24797        2.65692
Si         2.65549       -5.26388        7.93887
Si         2.63972       -0.00388       -7.95246
Si         2.64747        0.00122       -2.64941
Si         2.64638        0.00656        2.64589
Si         2.62970       -0.00409        7.95437
Si         2.65313        5.27443       -7.93287
Si         2.64597        5.28901       -2.64605
Si         2.64379        5.29320        2.64357
Si         2.60704        5.28134        7.91024
Si         2.64650       10.56256       -2.64476
Si         2.76571       10.53738        2.76575
Si         7.87675       -5.33410       -2.60338
Si         7.93964       -5.26359        2.65403
Si         7.95054       -0.00578       -2.64231
Si         7.95486       -0.00381        2.62851
Si         7.93280        5.27257       -2.65386
Si         7.91045        5.28162        2.60615
Si        -6.61808       -3.91465       -6.61756
Si        -6.62744       -3.95148       -1.31194
Si        -6.62830       -4.02959        3.98320
Si        -6.60399        1.31809       -6.60318
Si        -6.62585        1.32535       -1.31907
Si        -6.62218        1.29687        3.96337
Si        -6.59935        6.59921       -1.30195
Si        -6.60243        6.59702        3.94523
Si        -1.34804       -9.12825       -1.34852
Si        -1.25498       -9.30428        3.85799
Si        -1.31245       -3.95118       -6.62763
Si        -1.33176       -3.93520       -1.33195
Si        -1.31942       -3.96352        3.96849
Si        -1.31429       -4.01706        9.23844
Si        -1.31988        1.32564       -6.62575
Si        -1.32441        1.32652       -1.32430
Si        -1.32373        1.32052        3.96920
Si        -1.32152        1.30479        9.28982
Si        -1.30304        6.59950       -6.59896
Si        -1.32130        6.61895       -1.32092
Si        -1.30846        6.61551        3.96062
Si         3.85849       -9.30400       -1.25615
Si         3.99043       -9.23778        3.98926
Si         3.98269       -4.02900       -6.62920
Si         3.96868       -3.96323       -1.32031
Si         3.98652       -3.94518        3.98564
Si         3.98429       -3.96264        9.27829
Si         3.96257        1.29746       -6.62278
Si         3.96910        1.32081       -1.32433
Si         3.97163        1.32737        3.97104
Si         3.97653        1.31791        9.26800
Si         3.94415        6.59759       -6.60273
Si         3.96024        6.61579       -1.30877
Si         3.99294        6.64328        3.99262
Si         9.23863       -4.01648       -1.31586
Si         9.27917       -3.96235        3.98273
Si         9.28973        1.30535       -1.32282
Si         9.26860        1.31819        3.97525
Si        -9.28185       -3.95788       -3.98608
Si        -9.24129       -4.01422        1.31253
Si        -9.26968        1.32259       -3.97643
Si        -9.29078        1.30759        1.32168
Si        -3.99472       -9.23488       -3.99486
Si        -3.86278       -9.30333        1.25054
Si        -3.98695       -3.95758       -9.28169
Si        -3.98918       -3.94231       -3.98902
Si        -3.97133       -3.96257        1.31693
Si        -3.98531       -4.03053        6.62582
Si        -3.97759        1.32288       -9.26922
Si        -3.97270        1.33019       -3.97224
Si        -3.97015        1.32146        1.32314
Si        -3.96358        1.29594        6.62160
Si        -3.99243        6.64607       -3.99168
Si        -3.95973        6.61644        1.30972
Si        -3.94359        6.59610        6.60369
Si         1.25070       -9.30305       -3.86362
Si         1.34380       -9.12923        1.34296
Si         1.31168       -4.01362       -9.24184
Si         1.31677       -3.96227       -3.97187
Si         1.32911       -3.93615        1.32857
Si         1.30981       -3.95432        6.62424
Si         1.32052        1.30819       -9.29103
Si         1.32269        1.32175       -3.97040
Si         1.32335        1.32558        1.32310
Si         1.31884        1.32254        6.62454
Si         1.30899        6.61673       -3.95969
Si         1.32181        6.61802        1.32184
Si         1.30356        6.59645        6.59988
Si         6.62566       -4.02995       -3.98656
Si         6.62477       -3.95403        1.30858
Si         6.61541       -3.91941        6.61419
Si         6.62115        1.29651       -3.96453
Si         6.62479        1.32282        1.31790
Si         6.60290        1.31342        6.60197
Si         6.60297        6.59666       -3.94425
Si         6.59985        6.59673        1.30290
Si        -9.29378       -1.31272       -1.30700
Si        -9.25543       -1.34631        3.97733
Si        -9.26606        3.98126       -1.30733
Si        -9.27007        3.97178        3.98397
Si        -3.96372       -6.57609       -6.62034
Si        -3.98145       -6.56941       -1.33464
Si        -3.96245       -6.69244        3.95899
Si        -3.96389       -1.29213       -6.62842
Si        -3.97454       -1.31002       -1.32543
Si        -3.97049       -1.32952        3.96896
Si        -3.97811       -1.34818        9.25392
Si        -3.99248        3.99785       -6.64819
Si        -3.97101        3.96992       -1.32131
Si        -3.97397        3.96677        3.97431
Si        -3.98286        3.96994        9.27043
Si        -3.97844        9.26159       -1.31216
Si        -3.97816        9.26525        3.98034
Si         1.30275       -6.65158       -6.55580
Si         1.31098       -6.56653       -1.31512
Si         1.33119       -6.57132        3.97731
Si         1.32273       -1.32656       -6.62301
Si         1.32283       -1.31326       -1.32508
Si         1.32389       -1.31191        3.97229
Si         1.30619       -1.31649        9.29153
Si         1.31078        3.95689       -6.62162
Si         1.32221        3.96546       -1.32259
Si         1.32164        3.96806        3.97062
Si         1.30840        3.97755        9.26567
Si         1.31456        9.28584       -1.31308
Si         1.31433        9.25975        3.97988
Si         6.55164       -6.65348       -1.30757
Si         6.61688       -6.57991        3.95889
Si         6.59186       -1.33738       -6.59475
Si         6.62077       -1.32846       -1.32564
Si         6.62686       -1.29591        3.96096
Si         6.60248        3.93459       -6.60350
Si         6.62125        3.95501       -1.31182
Si         6.64852        3.99410        3.99141
Si        -6.62035       -6.57624       -3.96336
Si        -6.55511       -6.65202        1.30310
Si        -6.62873       -1.29228       -3.96323
Si        -6.62261       -1.32700        1.32339
Si        -6.59366       -1.33810        6.59251
Si        -6.64880        3.99770       -3.99152
Si        -6.62152        3.95645        1.31172
Si        -6.60270        3.93388        6.60341
Si        -1.33465       -6.56926       -3.98179
Si        -1.31444       -6.56667        1.31064
Si        -1.30619       -6.65392        6.55130
Si        -1.30801       -1.31227       -9.29382
Si        -1.32574       -1.30987       -3.97458
Si        -1.32468       -1.31340        1.32279
Si        -1.32456       -1.32888        6.62072
Si        -1.30864        3.98170       -9.26581
Si        -1.32190        3.97007       -3.97077
Si        -1.32248        3.96532        1.32245
Si        -1.31102        3.95459        6.62149
Si        -1.31305        9.26174       -3.97790
Si        -1.31326        9.28570        1.31508
Si         3.95898       -6.69200       -3.96349
Si         3.97799       -6.57118        1.33017
Si         3.96025       -6.58006        6.61586
Si         3.97633       -1.34557       -9.25618
Si         3.96866       -1.32908       -3.97123
Si         3.97268       -1.31177        1.32315
Si         3.96204       -1.29605        6.62613
Si         3.98268        3.97251       -9.27052
Si         3.97373        3.96720       -3.97443
Si         3.97073        3.96820        1.32118
Si         3.99221        3.99396        6.64806
Si         3.97947        9.26567       -3.97833
Si         3.97972        9.25989        1.31415
Si         9.25362       -1.34747       -3.97954
Si         9.29191       -1.31607        1.30476
Si         9.26984        3.97064       -3.98401
Si         9.26578        3.97796        1.30725
O         -1.05661      -11.12498        1.05112
O          1.05175      -11.12486       -1.05752
