     377
 i =        1, E =     -1597.5141365814
 Si         9.0917351312       14.3168389260       20.2174708702
 Si         9.0917600698       20.2175000491       14.3168482164
 Si         9.0946876405       19.9999584777       19.9999394289
 Si         9.0917612166       19.7825927368       25.6832169195
 Si         9.0917511850       25.6831221971       19.7825203547
 Si        14.3168323922        9.0917595798       20.2174679384
 Si        14.5346659722       14.5345706978       14.5346076002
 Si        14.5357763962       14.5357948985       19.9962012315
 Si        14.5541068372       14.5540646320       25.4460012618
 Si        14.3168122630       20.2174689900        9.0917371627
 Si        14.5358652566       19.9961613390       14.5357836930
 Si        14.5116495315       19.9999853746       20.0000152398
 Si        14.5357433753       20.0037807469       25.4642030594
 Si        14.3168271665       19.7825947264       30.9082168825
 Si        14.5540416298       25.4459535611       14.5540251550
 Si        14.5358267616       25.4642039174       20.0038209816
 Si        14.5345884720       25.4654194199       25.4653685221
 Si        14.3168102318       30.9082306208       19.7825398246
 Si        20.2173942381        9.0917461485       14.3167739243
 Si        20.0000421159        9.0947252987       19.9999927346
 Si        19.7825867828        9.0917406346       25.6832135059
 Si        20.2174402871       14.3168127120        9.0917824500
 Si        19.9961959068       14.5358114950       14.5358711065
 Si        20.0000297203       14.5116111869       19.9999866187
 Si        20.0038416289       14.5357411594       25.4641709689
 Si        19.7825516434       14.3168253995       30.9082234937
 Si        19.9999339565       19.9999337945        9.0947138277
 Si        20.0000358564       20.0000281483       14.5116383477
 Si        20.0000031088       19.9999413819       19.9999959145
 Si        19.9998441293       19.9999367390       25.4883075659
 Si        20.0000225685       19.9999794651       30.9053118785
 Si        19.7825656516       25.6831600210        9.0917600680
 Si        20.0038236223       25.4642252835       14.5358440591
 Si        19.9999584413       25.4882971008       20.0000432324
 Si        19.9960886913       25.4641641360       25.4642350973
 Si        20.2174124602       25.6831940722       30.9082358704
 Si        19.7825544305       30.9082517069       14.3168884057
 Si        20.0000133688       30.9052786530       19.9999922511
 Si        20.2174171960       30.9082301512       25.6831811606
 Si        25.6831706920        9.0917502799       19.7825704581
 Si        25.4460301012       14.5540715862       14.5540531295
 Si        25.4641604321       14.5358094298       20.0038975541
 Si        25.4654045648       14.5346267187       25.4654205563
 Si        25.6831455469       19.7825642210        9.0917807075
 Si        25.4641953441       20.0038073340       14.5358246790
 Si        25.4882999632       19.9999881219       19.9999570663
 Si        25.4642047968       19.9960920265       25.4642308065
 Si        25.6832055871       20.2173917404       30.9082361209
 Si        25.4654106722       25.4653584596       14.5346061890
 Si        25.4642377278       25.4642063403       19.9961399405
 Si        25.4459674293       25.4460074007       25.4459078972
 Si        25.6832227628       30.9082570213       20.2173417630
 Si        30.9082184038       14.3167777201       19.7825933469
 Si        30.9082170990       19.7825272357       14.3168263938
 Si        30.9052702228       20.0000946521       19.9999235998
 Si        30.9082284606       20.2175087141       25.6831308407
 Si        30.9082222265       25.6831549207       20.2174803166
 Si         9.0891396624       17.2664873624       17.2665004283
 Si         9.1015549138       17.0429319231       22.9570525874
 Si         9.1015516540       22.9570430037       17.0428931569
 Si         9.0891611950       22.7335111047       22.7335769590
 Si        14.5366575143       11.7876818336       17.2812451126
 Si        14.5541512842       11.8357742977       22.7117623016
 Si        14.5366228928       17.2812322382       11.7876350727
 Si        14.5220482553       17.2672262246       17.2671868949
 Si        14.5387718888       17.2708055860       22.7291500348
 Si        14.5541384307       17.2881800145       28.1642116325
 Si        14.5541188628       22.7117808805       11.8357202336
 Si        14.5387567879       22.7292116765       17.2707665534
 Si        14.5221025799       22.7327678724       22.7327667694
 Si        14.5366467869       22.7187267912       28.2123236241
 Si        14.5541353676       28.1642145868       17.2882414133
 Si        14.5366179513       28.2123476789       22.7187908776
 Si        19.9734005251       11.8172723914       11.8172783957
 Si        20.0094086872       11.7757235216       17.2568735691
 Si        19.9906194070       11.7756730568       22.7430909735
 Si        20.0266121355       11.8172587225       28.1827224590
 Si        20.0094326628       17.2568685607       11.7756866080
 Si        19.9956816175       17.2669368362       17.2668730286
 Si        20.0043494501       17.2670299626       22.7329047501
 Si        19.9905769354       17.2568382440       28.2242908248
 Si        19.9905732638       22.7430455656       11.7757051039
 Si        20.0043590625       22.7329688794       17.2669687972
 Si        19.9956732197       22.7330102533       22.7329849471
 Si        20.0094070626       22.7431049166       28.2243391634
 Si        20.0266751802       28.1827497936       11.8172520682
 Si        19.9906345468       28.2242141617       17.2568378307
 Si        20.0094374061       28.2242826920       22.7431305670
 Si        19.9733135137       28.1826824714       28.1827006723
 Si        25.4458080406       11.8357397426       17.2881887942
 Si        25.4633934767       11.7876274388       22.7187520123
 Si        25.4458461279       17.2881630577       11.8357817168
 Si        25.4611119731       17.2706915635       17.2707320897
 Si        25.4779349914       17.2672177102       22.7327513249
 Si        25.4633236360       17.2812836360       28.2123088964
 Si        25.4633120352       22.7187361618       11.7876629819
 Si        25.4778845534       22.7327501406       17.2672405830
 Si        25.4612145792       22.7292391977       22.7292334737
 Si        25.4458607676       22.7117552766       28.1642372068
 Si        25.4633839690       28.2123882415       17.2812279071
 Si        25.4458733732       28.1642517571       22.7117937048
 Si        30.8984470848       17.0429266506       17.0429281385
 Si        30.9108757808       17.2664571193       22.7335205284
 Si        30.9108259032       22.7334835963       17.2664513110
 Si        30.8984013913       22.9570714312       22.9570169386
 Si        11.8172999959       11.8172708596       19.9733473941
 Si        11.7876383608       17.2811684550       14.5366450082
 Si        11.7757168809       17.2568346826       20.0094312732
 Si        11.8357311535       17.2881705783       25.4458009511
 Si        11.8357786388       22.7117561499       14.5541511327
 Si        11.7756807833       22.7431596234       19.9906029816
 Si        11.7875985313       22.7187881020       25.4633641031
 Si        11.8172410242       28.1827456696       20.0266644267
 Si        17.2812341511       11.7876760332       14.5366039757
 Si        17.2568640668       11.7757119352       20.0094510344
 Si        17.2882017115       11.8357642835       25.4458644926
 Si        17.2665292857       17.2665008672        9.0891503038
 Si        17.2671501508       17.2671822293       14.5220809422
 Si        17.2669701115       17.2670046800       19.9956869023
 Si        17.2707712355       17.2707981231       25.4612375057
 Si        17.0429526341       17.0429514819       30.8984042474
 Si        17.0429412996       22.9571070886        9.1016046238
 Si        17.2707249895       22.7292222570       14.5387909936
 Si        17.2669886750       22.7329799415       20.0043458972
 Si        17.2672604800       22.7328022592       25.4778846659
 Si        17.2664513627       22.7335298582       30.9108770241
 Si        17.2882185022       28.1642854225       14.5541396090
 Si        17.2568230809       28.2242311310       19.9905488686
 Si        17.2812292903       28.2123215973       25.4633808502
 Si        22.7118066956       11.8356770956       14.5540506386
 Si        22.7431626673       11.7757090197       19.9906101323
 Si        22.7187822068       11.7876735094       25.4633287164
 Si        22.9570717777       17.0428734875        9.1015217754
 Si        22.7292162152       17.2708083685       14.5386969387
 Si        22.7329958137       17.2670277476       20.0043419492
 Si        22.7329141511       17.2672124602       25.4779057223
 Si        22.7334931457       17.2664548699       30.9108282685
 Si        22.7334959898       22.7335268925        9.0891392854
 Si        22.7327977588       22.7327661239       14.5220665556
 Si        22.7329714833       22.7329835673       19.9957179320
 Si        22.7292460694       22.7292475533       25.4612525029
 Si        22.9570981820       22.9570987687       30.8984012392
 Si        22.7187427174       28.2123139767       14.5366436207
 Si        22.7431027588       28.2242298034       20.0094554900
 Si        22.7117854708       28.1642292000       25.4458866424
 Si        28.1827259986       11.8172838972       20.0266610226
 Si        28.1642877427       17.2882109669       14.5541371990
 Si        28.2242309158       17.2568339242       19.9905818603
 Si        28.2123556716       17.2812540685       25.4633490368
 Si        28.2123397123       22.7186997184       14.5366619998
 Si        28.2243214146       22.7431206672       20.0094455638
 Si        28.1642397810       22.7118161768       25.4459174518
 Si        28.1826486155       28.1826906795       19.9733597185
 Si        11.7876653741       14.5366141621       17.2812337118
 Si        11.8357294088       14.5541463849       22.7117984226
 Si        11.8173104515       19.9733606666       11.8172858995
 Si        11.7757715655       20.0094552918       17.2568931636
 Si        11.7757073993       19.9906216265       22.7431041776
 Si        11.8172564472       20.0266482648       28.1827701422
 Si        11.8357590802       25.4458071092       17.2881640577
 Si        11.7876850810       25.4633943400       22.7187653869
 Si        17.2664855907        9.0891591422       17.2664759243
 Si        17.0429445271        9.1015966065       22.9571244397
 Si        17.2812195753       14.5366252843       11.7876643001
 Si        17.2672525637       14.5220705561       17.2672108681
 Si        17.2707225602       14.5387980782       22.7291966178
 Si        17.2882381475       14.5540583257       28.1642999363
 Si        17.2568959490       20.0094277539       11.7756561993
 Si        17.2670010374       19.9956797246       17.2670568017
 Si        17.2669999478       20.0042942920       22.7330491075
 Si        17.2568268207       19.9905880612       28.2243008265
 Si        17.2881864727       25.4458072041       11.8357635654
 Si        17.2707326157       25.4612011993       17.2707515514
 Si        17.2673175697       25.4778596216       22.7328153885
 Si        17.2812743718       25.4633056380       28.2123613801
 Si        17.0428984544       30.8984304817       17.0429356032
 Si        17.2665067875       30.9108564064       22.7334640675
 Si        22.9570501473        9.1015407000       17.0429291179
 Si        22.7335418471        9.0891540199       22.7335336959
 Si        22.7117328487       14.5541996321       11.8357418125
 Si        22.7292878518       14.5386815866       17.2707301006
 Si        22.7327774604       14.5221622030       22.7327585537
 Si        22.7187647826       14.5365885156       28.2123862314
 Si        22.7431422837       19.9905764804       11.7757131357
 Si        22.7329847945       20.0043076297       17.2670049004
 Si        22.7330304674       19.9956543142       22.7330312651
 Si        22.7431810646       20.0094021860       28.2242885865
 Si        22.7187615724       25.4633877146       11.7876632175
 Si        22.7328298687       25.4779174899       17.2672534919
 Si        22.7292478013       25.4611190051       22.7292373913
 Si        22.7118384425       25.4458687551       28.1642350451
 Si        22.7335157522       30.9108358312       17.2665003839
 Si        22.9570813282       30.8984503068       22.9571349080
 Si        28.1642092898       14.5541407443       17.2881607417
 Si        28.2123526473       14.5365888264       22.7187330438
 Si        28.1827615956       20.0266272599       11.8172353790
 Si        28.2242997011       19.9905654234       17.2568371990
 Si        28.2243463250       20.0094059919       22.7431268411
 Si        28.1827351509       19.9733929863       28.1827909494
 Si        28.2123382084       25.4634024225       17.2811885133
 Si        28.1642892184       25.4458468250       22.7118323356
 Si        13.1749536658       10.4274027940       18.6498708478
 Si        13.1809901662       15.9332778240       13.1809966261
 Si        13.1568364490       15.8999416455       18.6405047422
 Si        13.1824889088       15.9062766931       24.0937443539
 Si        13.1719390638       21.3528294016       13.1719406313
 Si        13.1478791347       21.3739527827       18.6260124662
 Si        13.1569339534       21.3595444795       24.1001514844
 Si        13.1749679116       21.3501033454       29.5726314892
 Si        13.1720239225       26.8280610949       18.6472192804
 Si        13.1810171845       26.8189203198       24.0668145290
 Si        18.6499069633       10.4273604242       13.1749924556
 Si        18.6315781187       10.4354912532       18.6315481963
 Si        18.6185231653       10.4145423096       24.1178659556
 Si        18.6404048693       15.8998988577       13.1568499550
 Si        18.6337074612       15.8909248277       18.6337302665
 Si        18.6392885828       15.9034020732       24.0967115241
 Si        18.6185058548       15.8820605675       29.5853625526
 Si        18.6260426129       21.3740182713       13.1478073159
 Si        18.6336064598       21.3663719801       18.6335942675
 Si        18.6336626288       21.3663849498       24.1091369366
 Si        18.6316342685       21.3684078158       29.5645011189
 Si        18.6472055756       26.8280463457       13.1719689636
 Si        18.6260219403       26.8522257151       18.6261189818
 Si        18.6404235527       26.8431414973       24.1000745172
 Si        18.6498986337       26.8250584961       29.5726247664
 Si        24.1179685795       10.4147058160       18.6185223418
 Si        24.0898150325       10.4499627503       24.0899042139
 Si        24.0936950154       15.9063278889       13.1825340659
 Si        24.0966794289       15.9033750536       18.6391920897
 Si        24.1008836405       15.8991705109       24.1008924998
 Si        24.0898625031       15.9101089944       29.5500522317
 Si        24.1000436480       21.3595527893       13.1567994901
 Si        24.1091228225       21.3662894227       18.6337203787
 Si        24.0966976055       21.3607403521       24.0966236267
 Si        24.1178846651       21.3814534806       29.5853879335
 Si        24.0667986250       26.8189215097       13.1810067680
 Si        24.1001126379       26.8431370759       18.6404450492
 Si        24.0937427726       26.8174942524       24.0937673783
 Si        29.5854233616       15.8820808469       18.6185897185
 Si        29.5500572025       15.9101786498       24.0898045708
 Si        29.5726407850       21.3500853832       13.1749511871
 Si        29.5645286959       21.3683771069       18.6316382515
 Si        29.5854397943       21.3813491703       24.1179073830
 Si        29.5726002233       26.8249670471       18.6498785429
 Si        10.4499660236       15.9102002815       15.9101244029
 Si        10.4146559374       15.8820841080       21.3814176880
 Si        10.4145712035       21.3814800439       15.8820762682
 Si        10.4355390453       21.3683494778       21.3684572118
 Si        10.4273647753       21.3501221532       26.8249979719
 Si        10.4273768929       26.8250032588       21.3501369886
 Si        15.9101633301       10.4499096547       15.9101839761
 Si        15.8820857507       10.4145673777       21.3814683941
 Si        15.9102060565       15.9101203256       10.4499734385
 Si        15.8991044499       15.8991073023       15.8990938321
 Si        15.9033607644       15.9033335504       21.3606980538
 Si        15.9062069923       15.9062766601       26.8174929454
 Si        15.8821324819       21.3814170286       10.4146625166
 Si        15.9033045437       21.3607074993       15.9033345702
 Si        15.8908208064       21.3663075640       21.3662863221
 Si        15.8998865759       21.3595631811       26.8431254285
 Si        15.9062981779       26.8174640156       15.9062975170
 Si        15.8998702023       26.8431725086       21.3594899113
 Si        15.9332200193       26.8189446316       26.8189113630
 Si        21.3814325125       10.4146614292       15.8820986249
 Si        21.3683038224       10.4354689101       21.3684372387
 Si        21.3500961453       10.4273732719       26.8250238452
 Si        21.3814716036       15.8820619123       10.4146740509
 Si        21.3606237540       15.9033509178       15.9033323740
 Si        21.3663372985       15.8908943864       21.3663257309
 Si        21.3595602066       15.8999045875       26.8431578435
 Si        21.3684419381       21.3684069790       10.4354920112
 Si        21.3663222026       21.3662612923       15.8909290748
 Si        21.3664000604       21.3663690121       21.3663120212
 Si        21.3739428332       21.3739685016       26.8521572799
 Si        21.3501311232       26.8250433294       10.4274031488
 Si        21.3595406157       26.8431829419       15.8998863767
 Si        21.3739590609       26.8522007195       21.3739060614
 Si        21.3528009948       26.8280296354       26.8280389904
 Si        26.8250326750       10.4273922744       21.3501142525
 Si        26.8174667750       15.9062653105       15.9062631103
 Si        26.8431262854       15.8998450821       21.3595880668
 Si        26.8189910637       15.9331630218       26.8189488278
 Si        26.8249973425       21.3501199023       10.4273666544
 Si        26.8431813779       21.3595566915       15.8998750129
 Si        26.8521684009       21.3739533512       21.3739945671
 Si        26.8280469977       21.3528252946       26.8279992709
 Si        26.8189888665       26.8189529863       15.9332060842
 Si        26.8280217927       26.8280179206       21.3527722489
 Si        10.4273966347       13.1749176512       18.6498909201
 Si        10.4273895121       18.6499500577       13.1749441789
 Si        10.4354411344       18.6315675840       18.6316428014
 Si        10.4146601531       18.6184727506       24.1179061410
 Si        10.4146636466       24.1179316968       18.6185551008
 Si        10.4499486437       24.0898231039       24.0898950099
 Si        15.9331514961       13.1810089038       13.1810837583
 Si        15.8998732860       13.1567721854       18.6404448027
 Si        15.9062617646       13.1825225710       24.0937818675
 Si        15.8998655011       18.6404177889       13.1569260384
 Si        15.8908785865       18.6336472997       18.6336575803
 Si        15.9033279727       18.6392584594       24.0967272713
 Si        15.8821139478       18.6185491663       29.5854355386
 Si        15.9062947407       24.0937099223       13.1824925282
 Si        15.9032452737       24.0966523410       18.6392435247
 Si        15.8991144505       24.1009093747       24.1009831146
 Si        15.9101642689       24.0898325978       29.5500732279
 Si        15.8821221291       29.5853754289       18.6185665634
 Si        15.9101638969       29.5500647658       24.0898237740
 Si        21.3527521674       13.1719340162       13.1719626702
 Si        21.3738762255       13.1478744517       18.6260062379
 Si        21.3594713827       13.1568160077       24.1000979020
 Si        21.3501515562       13.1749106269       29.5725703494
 Si        21.3739615901       18.6260051964       13.1478829961
 Si        21.3663724473       18.6336568695       18.6336514840
 Si        21.3663571256       18.6336357894       24.1090798096
 Si        21.3684530127       18.6316126719       29.5645104236
 Si        21.3595638878       24.1000676917       13.1568549769
 Si        21.3663047712       24.1091023010       18.6336303830
 Si        21.3607597155       24.0966598947       24.0966146809
 Si        21.3814906997       24.1178783733       29.5853940659
 Si        21.3501088263       29.5725421547       13.1749142767
 Si        21.3683973284       29.5645696096       18.6315799151
 Si        21.3814660605       29.5853450758       24.1178831604
 Si        26.8280383585       13.1719098469       18.6471975175
 Si        26.8189589203       13.1810093530       24.0667673978
 Si        26.8280049572       18.6472307561       13.1720186827
 Si        26.8521693083       18.6261330629       18.6261242379
 Si        26.8431066803       18.6404335890       24.1000796871
 Si        26.8250180950       18.6499032032       29.5726204151
 Si        26.8189502266       24.0668305874       13.1810667278
 Si        26.8431130528       24.1001210842       18.6404274269
 Si        26.8174664472       24.0936944338       24.0937338967
 Si        26.8250464114       29.5726153365       18.6499215382
 Si        13.1809848438       13.1810040443       15.9332058315
 Si        13.1719714091       13.1719017148       21.3527905399
 Si        13.1749027169       18.6498578377       10.4274124122
 Si        13.1569040851       18.6403917160       15.8999734172
 Si        13.1478944972       18.6259500085       21.3739327855
 Si        13.1719957435       18.6472110489       26.8279944185
 Si        13.1825120873       24.0937276434       15.9063471784
 Si        13.1568632565       24.1000687040       21.3595489560
 Si        13.1809771074       24.0667845689       26.8188798268
 Si        13.1749446384       29.5726139561       21.3500660645
 Si        18.6498656488       13.1749871469       10.4273525911
 Si        18.6404652798       13.1568550574       15.8999200420
 Si        18.6260206485       13.1478227780       21.3739354661
 Si        18.6471689977       13.1720254811       26.8280860834
 Si        18.6316088203       18.6316109538       10.4354472358
 Si        18.6337660975       18.6335886479       15.8909331512
 Si        18.6337157223       18.6336130855       21.3663846086
 Si        18.6260214084       18.6259949188       26.8520732451
 Si        18.6185605133       24.1178902519       10.4146181784
 Si        18.6393659220       24.0966942771       15.9033551749
 Si        18.6337522913       24.1090769502       21.3663025743
 Si        18.6404569407       24.1001824121       26.8430865285
 Si        18.6185292936       29.5853824087       15.8820951553
 Si        18.6316546191       29.5645479485       21.3684619578
 Si        18.6498729579       29.5726030017       26.8250746068
 Si        24.0937068362       13.1825252643       15.9064020677
 Si        24.1001597920       13.1568855194       21.3596174350
 Si        24.0667917105       13.1810436329       26.8190126389
 Si        24.1179158615       18.6185669067       10.4146473949
 Si        24.0967129382       18.6392676559       15.9033523787
 Si        24.1090915229       18.6336996973       21.3663540673
 Si        24.1000213561       18.6404173116       26.8431793003
 Si        24.0898783687       24.0898345892       10.4499283539
 Si        24.1009006967       24.1009603515       15.8990915134
 Si        24.0966067886       24.0966452066       21.3607396283
 Si        24.0936101911       24.0936958035       26.8175430554
 Si        24.0898499459       29.5500623244       15.9101609279
 Si        24.1179140923       29.5852957228       21.3815139356
 Si        29.5726473645       13.1749579487       21.3501261586
 Si        29.5853501549       18.6185199826       15.8820915693
 Si        29.5645417223       18.6316237726       21.3684771121
 Si        29.5725847443       18.6498171624       26.8250090188
 Si        29.5500895464       24.0898714397       15.9101533157
 Si        29.5853903950       24.1178537470       21.3814208723
  