     405
 i =        1, E =     -1740.1692059528
 Si        11.5920733481       16.8317421450       22.6820438897
 Si        11.5921810302       22.6823729028       16.8315141750
 Si        11.5990558878       22.5000097307       22.5000228688
 Si        11.5921062335       22.3178200704       28.1685151105
 Si        11.5920333266       28.1682641053       22.3181935671
 Si        16.8315494881       11.5921293974       22.6822368656
 Si        17.0376330251       17.0376518404       17.0376994335
 Si        17.0190391745       17.0191072392       22.5179180826
 Si        17.0070988403       17.0071234142       27.9929593323
 Si        16.8318080906       22.6818724074       11.5920571144
 Si        17.0190511690       22.5179032689       17.0190480611
 Si        17.0119260473       22.5000879843       22.5001050948
 Si        17.0190527698       22.4821440638       27.9810504963
 Si        16.8315985643       22.3179441700       33.4079755930
 Si        17.0071330657       27.9929413864       17.0071224059
 Si        17.0190681661       27.9809894036       22.4821803173
 Si        17.0376739842       27.9624258463       27.9623958329
 Si        16.8315006183       33.4078594366       22.3177190420
 Si        22.6818447529       11.5920322677       16.8318102865
 Si        22.5000000954       11.5990389573       22.5000116607
 Si        22.3179889765       11.5920688235       28.1683421088
 Si        22.6823781637       16.8314406520       11.5921999399
 Si        22.5178619595       17.0190003998       17.0190847254
 Si        22.4999961653       17.0119150065       22.5000398623
 Si        22.4821621046       17.0190465380       27.9810345098
 Si        22.3179044643       16.8316600046       33.4079676220
 Si        22.4999978151       22.5000150713       11.5990597470
 Si        22.5000244243       22.5000181153       17.0119306085
 Si        22.5000099044       22.5000487219       22.5000559674
 Si        22.4999874462       22.5000202991       27.9881374533
 Si        22.5000111943       22.5000387693       33.4010301415
 Si        22.3176613347       28.1685876322       11.5922122633
 Si        22.4821235663       27.9809665790       17.0190732994
 Si        22.5000506636       27.9881475133       22.5000501846
 Si        22.5178649887       27.9809755793       27.9810480366
 Si        22.6819500708       28.1683329736       33.4080296092
 Si        22.3181774480       33.4080014553       16.8317371000
 Si        22.5000492633       33.4010011463       22.4999973698
 Si        22.6822436303       33.4079108884       28.1684052469
 Si        28.1685844371       11.5921880332       22.3176820840
 Si        27.9929520174       17.0071109930       17.0071536970
 Si        27.9809812489       17.0190359256       22.4821923692
 Si        27.9623536360       17.0376321893       27.9624134487
 Si        28.1682032969       22.3182319587       11.5920256778
 Si        27.9810047708       22.4821404352       17.0190702954
 Si        27.9881377982       22.4999984401       22.5000540066
 Si        27.9810221139       22.5178564658       27.9809993443
 Si        28.1684729385       22.6822579974       33.4079130295
 Si        27.9624114078       27.9623484248       17.0377289892
 Si        27.9810115346       27.9809701043       22.5179351085
 Si        27.9929027235       27.9929073282       27.9929986570
 Si        28.1683957136       33.4079754053       22.6820161201
 Si        33.4080249687       16.8317514449       22.3182098166
 Si        33.4078673595       22.3176452006       16.8315441359
 Si        33.4010170448       22.5000133839       22.5000479915
 Si        33.4079863708       22.6819913111       28.1684112436
 Si        33.4078902025       28.1684538127       22.6822738809
 Si        11.5916363842       19.7661268275       19.7658939062
 Si        11.5998406621       19.5913269861       25.4087157464
 Si        11.5998483736       25.4087206475       19.5913660581
 Si        11.5916519981       25.2339266383       25.2341890526
 Si        17.0412534230       14.2963542898       19.7758296706
 Si        16.9995318747       14.2536319460       25.2377935075
 Si        17.0412475600       19.7757819201       14.2964391775
 Si        17.0268296385       19.7690633261       19.7691101287
 Si        16.9892246211       19.7353695702       25.2647107240
 Si        16.9995376048       19.7623023806       30.7465087364
 Si        16.9994577413       25.2377728941       14.2534703996
 Si        16.9892272525       25.2647556591       19.7354245551
 Si        17.0268408163       25.2309516076       25.2309807694
 Si        17.0412938253       25.2242523167       30.7036903323
 Si        16.9996855282       30.7462549372       19.7623203618
 Si        17.0413203724       30.7036955732       25.2242782326
 Si        22.4556178123       14.3083684884       14.3084294347
 Si        22.5028844397       14.2817011283       19.7593103497
 Si        22.4971102945       14.2817287998       25.2408389641
 Si        22.5443850886       14.3083935692       30.6916957549
 Si        22.5029614977       19.7592471113       14.2817954818
 Si        22.5124271574       19.7551941857       19.7551908273
 Si        22.4875605909       19.7552341964       25.2449047800
 Si        22.4970769160       19.7592288987       30.7183381989
 Si        22.4970630284       25.2408252965       14.2818498557
 Si        22.4876098251       25.2447497905       19.7552320528
 Si        22.5124674306       25.2448355041       25.2448548378
 Si        22.5029303022       25.2408263466       30.7183535875
 Si        22.5444289022       30.6916481621       14.3084168671
 Si        22.4971026458       30.7182828841       19.7592717542
 Si        22.5029725552       30.7182535687       25.2408117154
 Si        22.4556202343       30.6916923625       30.6917344558
 Si        28.0003848387       14.2538398997       19.7623514660
 Si        27.9587093378       14.2963249718       25.2242727201
 Si        28.0005820289       19.7622584234       14.2533883210
 Si        28.0108587326       19.7352754118       19.7354374033
 Si        27.9731608559       19.7690803959       25.2309836495
 Si        27.9587427023       19.7757984464       30.7037268656
 Si        27.9587843156       25.2242370862       14.2964033360
 Si        27.9731859625       25.2309437235       19.7690976464
 Si        28.0107960877       25.2646037968       25.2647564826
 Si        28.0004292022       25.2377052673       30.7463444752
 Si        27.9587892653       30.7036006156       19.7757975135
 Si        28.0005840276       30.7465512702       25.2377745816
 Si        33.4001865469       19.5913170346       19.5913338626
 Si        33.4083751661       19.7659922115       25.2341810805
 Si        33.4083977661       25.2339676719       19.7660172546
 Si        33.4001890297       25.4086848798       25.4087925467
 Si        14.3084054860       14.3083738352       22.4556943495
 Si        14.2963621209       19.7757591435       17.0413171478
 Si        14.2817209640       19.7592516468       22.5030002080
 Si        14.2536041804       19.7622902462       28.0005304233
 Si        14.2537546921       25.2377618101       16.9996677750
 Si        14.2817187618       25.2407495094       22.4971974466
 Si        14.2963580360       25.2242496915       27.9587960166
 Si        14.3084015831       30.6916762210       22.5444355539
 Si        19.7757676878       14.2963858121       17.0413242016
 Si        19.7592092017       14.2817403757       22.5029319995
 Si        19.7622955046       14.2535546734       28.0005524596
 Si        19.7662051723       19.7658297878       11.5916875721
 Si        19.7691079645       19.7690531602       17.0268655626
 Si        19.7552428504       19.7552212266       22.5125225351
 Si        19.7353461224       19.7353845142       28.0108715764
 Si        19.5912872146       19.5912863616       33.4002283256
 Si        19.5913338091       25.4087452391       11.5998799928
 Si        19.7352987410       25.2646096049       16.9892814801
 Si        19.7552085219       25.2448029484       22.4876430517
 Si        19.7691119986       25.2310134305       27.9732350142
 Si        19.7659320588       25.2340268823       33.4084070242
 Si        19.7622607310       30.7466196200       16.9994690513
 Si        19.7592108556       30.7182663289       22.4971147210
 Si        19.7758165312       30.7037263198       27.9587548026
 Si        25.2377720477       14.2534093329       16.9994656177
 Si        25.2408197798       14.2817235171       22.4971363844
 Si        25.2242098433       14.2963373714       27.9587945398
 Si        25.4086984623       19.5913022634       11.5998733731
 Si        25.2647388845       19.7354149498       16.9892307749
 Si        25.2448018387       19.7552290369       22.4876158578
 Si        25.2309194222       19.7690736104       27.9732237135
 Si        25.2340857824       19.7660386456       33.4084198924
 Si        25.2338145437       25.2342337093       11.5916904681
 Si        25.2309643575       25.2309687539       17.0268694388
 Si        25.2448064427       25.2448033239       22.5125116022
 Si        25.2646635616       25.2647161058       28.0108757548
 Si        25.4087390257       25.4087269555       33.4002117911
 Si        25.2242746017       30.7036274490       17.0413401815
 Si        25.2407923087       30.7182863531       22.5029718652
 Si        25.2377588138       30.7463468015       28.0004463589
 Si        30.6916529990       14.3083441402       22.5444693920
 Si        30.7462248468       19.7622938314       16.9997095610
 Si        30.7182689361       19.7592420845       22.4971463934
 Si        30.7036180491       19.7757608584       27.9588102287
 Si        30.7037044755       25.2242098088       17.0412989209
 Si        30.7182534912       25.2407117101       22.5029603094
 Si        30.7465543273       25.2377931186       28.0005822802
 Si        30.6916809657       30.6916448308       22.4556733799
 Si        14.2963441819       17.0413142107       19.7758022979
 Si        14.2535579595       16.9994955970       25.2377692100
 Si        14.3083641509       22.4556565313       14.3084075106
 Si        14.2817933702       22.5029764936       19.7592474002
 Si        14.2817542233       22.4970776463       25.2408249087
 Si        14.3083918367       22.5444240583       30.6916986281
 Si        14.2533930710       28.0006138528       19.7623130554
 Si        14.2963533756       27.9587851460       25.2242633815
 Si        19.7658504911       11.5916592614       19.7661572898
 Si        19.5912876312       11.5998565211       25.4087542364
 Si        19.7758030382       17.0412728459       14.2963849908
 Si        19.7690693274       17.0268813737       19.7691161963
 Si        19.7353288548       16.9891999154       25.2647528930
 Si        19.7622695961       16.9995799983       30.7464344496
 Si        19.7592887261       22.5029071945       14.2817205293
 Si        19.7551802918       22.5124973236       19.7552622962
 Si        19.7552285565       22.4875933155       25.2448621600
 Si        19.7592381152       22.4970829162       30.7182875139
 Si        19.7622683717       28.0003944625       14.2538089927
 Si        19.7353444468       28.0108280891       19.7353551764
 Si        19.7690766362       27.9732086087       25.2310172357
 Si        19.7758263385       27.9587964433       30.7036967800
 Si        19.5913085086       33.4001823010       19.5913167226
 Si        19.7659276185       33.4084088423       25.2339987735
 Si        25.4087279270       11.5998347500       19.5913442986
 Si        25.2341465935       11.5916228721       25.2338920683
 Si        25.2377509947       16.9996353337       14.2538110062
 Si        25.2645989498       16.9891943425       19.7353649278
 Si        25.2309895483       17.0268463822       25.2309983219
 Si        25.2242067144       17.0412657916       30.7037024658
 Si        25.2407881114       22.4971271561       14.2817441157
 Si        25.2448623735       22.4875424490       19.7552533864
 Si        25.2447596827       22.5124597395       25.2448416776
 Si        25.2407962515       22.5028841547       30.7182662840
 Si        25.2242592904       27.9587563354       14.2963608457
 Si        25.2310077431       27.9732187366       19.7691147385
 Si        25.2647550785       28.0108438021       25.2646367682
 Si        25.2377731137       28.0005564905       30.7465774699
 Si        25.2340969274       33.4083714714       19.7660238665
 Si        25.4087024772       33.4001894282       25.4087488507
 Si        30.7466675000       16.9993882212       19.7623136589
 Si        30.7036502258       17.0412240912       25.2243550035
 Si        30.6916666928       22.5443483626       14.3084179772
 Si        30.7182670927       22.4970570343       19.7592748241
 Si        30.7183130299       22.5029483201       25.2408512322
 Si        30.6916734434       22.4556244284       30.6916689220
 Si        30.7036640597       27.9587168309       19.7758630050
 Si        30.7463050409       28.0004252086       25.2377888879
 Si        15.6796351237       12.9332365017       21.1300263812
 Si        15.6439770625       12.6158158645       26.3091986438
 Si        15.6847129349       18.4287446726       15.6848045152
 Si        15.6622688480       18.3969465674       21.1445853241
 Si        15.6045497019       18.3576129815       26.6424232772
 Si        15.6439950090       18.6912520627       32.3846500909
 Si        15.6442408380       23.8777436958       15.6442496714
 Si        15.6470833379       23.8794612847       21.1206861800
 Si        15.6622719383       23.8555480922       26.6031383709
 Si        15.6796328012       23.8701007901       32.0668574413
 Si        15.6506966784       29.3492636603       15.6508098196
 Si        15.6442019799       29.3557866140       21.1223159987
 Si        15.6847900764       29.3153253255       26.5713429596
 Si        21.1299194665       12.9332305306       15.6796950509
 Si        21.1307947521       12.9376319149       21.1309280242
 Si        21.1352130497       12.9187268132       26.6121721265
 Si        21.1444601253       18.3969243012       15.6623098586
 Si        21.1357554304       18.3932516452       21.1358382931
 Si        21.1063259863       18.3805240945       26.6195359676
 Si        21.1351901909       18.3878898244       32.0813362982
 Si        21.1205898109       23.8793921359       15.6471162072
 Si        21.1284507632       23.8715788255       21.1285118610
 Si        21.1357582175       23.8642388222       26.6068590180
 Si        21.1308423527       23.8692047892       32.0624450439
 Si        21.1223307836       29.3558317378       15.6442975393
 Si        21.1206681833       29.3529735120       21.1205944148
 Si        21.1444909061       29.3378237099       26.6031319053
 Si        21.1299624357       29.3204240992       32.0668327293
 Si        26.3076947710       12.6145564371       15.6438169020
 Si        26.6121164709       12.9187805513       21.1352089416
 Si        26.5895041771       12.9536083088       26.5895899206
 Si        26.6424910532       18.3577037350       15.6045214367
 Si        26.6194596082       18.3804577282       21.1064258506
 Si        26.5980846561       18.4018800377       26.5981969265
 Si        26.5894934833       18.4104771502       32.0464623738
 Si        26.6030803052       23.8555237113       15.6622677494
 Si        26.6068430587       23.8642460853       21.1358495141
 Si        26.6194595046       23.8937099956       26.6195699617
 Si        26.6121854182       23.8648609692       32.0813252982
 Si        26.5712941897       29.3152591563       15.6847426123
 Si        26.6031040653       29.3378113413       21.1445363066
 Si        26.6423977954       29.3954926685       26.6424096438
 Si        26.3082815816       29.3561347200       32.3850295291
 Si        32.3834224243       18.6897875393       15.6442970386
 Si        32.0813639111       18.3878603065       21.1353255183
 Si        32.0463970206       18.4104896943       26.5895642418
 Si        32.0668404035       23.8699870094       15.6796699889
 Si        32.0623852331       23.8691647347       21.1308907177
 Si        32.0813616816       23.8647699397       26.6121899228
 Si        32.0668427626       29.3203790687       21.1300355560
 Si        32.3838339582       29.3558233625       26.3097892806
 Si        12.9535855557       18.4105324711       18.4105963426
 Si        12.9187432193       18.3879442668       23.8648155759
 Si        12.6157458979       18.6909413708       29.3560708632
 Si        12.9187629261       23.8648743605       18.3879274237
 Si        12.9376381332       23.8692232462       23.8692288470
 Si        12.9331932830       23.8700727009       29.3204099460
 Si        12.6145648540       29.3563225558       18.6924211531
 Si        12.9332242189       29.3204112328       23.8701005130
 Si        18.4104949995       12.9536377749       18.4105537905
 Si        18.3878630661       12.9186899327       23.8648466950
 Si        18.6913568206       12.6153838427       29.3561009713
 Si        18.4105323015       18.4104684010       12.9536384050
 Si        18.4018895999       18.4019269184       18.4019532140
 Si        18.3805088581       18.3805098996       23.8937154946
 Si        18.3576545808       18.3576332848       29.3955233561
 Si        18.3878947773       23.8647581061       12.9187220818
 Si        18.3804265375       23.8937064525       18.3806221301
 Si        18.3931960974       23.8642896513       23.8642494656
 Si        18.3969043736       23.8555229076       29.3378473043
 Si        18.6900544109       29.3559377042       12.6165513135
 Si        18.3577581417       29.3954741309       18.3575835369
 Si        18.3969332891       29.3377971101       23.8555742477
 Si        18.4287216382       29.3153213761       29.3152867436
 Si        23.8647195504       12.9186357927       18.3879017321
 Si        23.8691950431       12.9376337375       23.8691598921
 Si        23.8700357721       12.9332035894       29.3204463066
 Si        23.8648667345       18.3878497439       12.9188401189
 Si        23.8936877206       18.3806548773       18.3805801637
 Si        23.8642609843       18.3932083781       23.8642994234
 Si        23.8555371302       18.3969613144       29.3378165676
 Si        23.8691551095       23.8692210398       12.9376471347
 Si        23.8642412134       23.8642488856       18.3932962226
 Si        23.8715730323       23.8715683319       23.8716360735
 Si        23.8794260253       23.8794934925       29.3529830360
 Si        23.8700426209       29.3203624909       12.9332227907
 Si        23.8555448696       29.3377838204       18.3969526600
 Si        23.8794596627       29.3529599339       23.8794550942
 Si        23.8777839460       29.3557394075       29.3558426577
 Si        29.3558794800       12.6166980515       18.6898655703
 Si        29.3203629584       12.9331611271       23.8700294162
 Si        29.3562245680       18.6924111921       12.6145062042
 Si        29.3954923866       18.3575459914       18.3577621737
 Si        29.3377716896       18.3969427206       23.8555313741
 Si        29.3152659735       18.4287041275       29.3153588884
 Si        29.3204223771       23.8700597315       12.9332404845
 Si        29.3378001588       23.8554755914       18.3969863102
 Si        29.3529594642       23.8793855189       23.8794676994
 Si        29.3558010611       23.8777344268       29.3558152247
 Si        29.3153096917       29.3152727769       18.4287844857
 Si        29.3557705910       29.3557801496       23.8778012857
 Si        29.3493263904       29.3493627644       29.3492638270
 Si        12.9331949416       15.6796550280       21.1300148210
 Si        12.6153823932       15.6439656830       26.3086933861
 Si        12.9332088427       21.1300496881       15.6796488158
 Si        12.9376072470       21.1308564735       21.1308654722
 Si        12.9187507030       21.1352056132       26.6122134346
 Si        12.6164342374       26.3100274807       15.6442606764
 Si        12.9186662718       26.6121535295       21.1353045221
 Si        12.9536184302       26.5895520176       26.5895877941
 Si        18.4287336175       15.6847640566       15.6847676042
 Si        18.3969484629       15.6622014595       21.1445718137
 Si        18.3576415139       15.6045816577       26.6424728790
 Si        18.6909143835       15.6439853254       32.3842958449
 Si        18.3969462641       21.1444726325       15.6623172833
 Si        18.3932277458       21.1357713088       21.1358309331
 Si        18.3804743725       21.1063526665       26.6195193364
 Si        18.3878506221       21.1352206752       32.0813340254
 Si        18.3575769115       26.6423321285       15.6045975383
 Si        18.3805349319       26.6195634664       21.1063830542
 Si        18.4019301131       26.5981382388       26.5981577403
 Si        18.4105069994       26.5895177482       32.0464449014
 Si        18.6923224455       32.3853075030       15.6436979879
 Si        18.3879272155       32.0812499084       21.1352223212
 Si        18.4105693792       32.0464619475       26.5895332298
 Si        23.8777511309       15.6441928207       15.6443284181
 Si        23.8794010575       15.6471238015       21.1206280384
 Si        23.8555118151       15.6622521061       26.6031125249
 Si        23.8700215089       15.6796177752       32.0668735682
 Si        23.8794170081       21.1205963490       15.6471291493
 Si        23.8715580533       21.1284366745       21.1285294192
 Si        23.8642311403       21.1358080711       26.6068113507
 Si        23.8691880953       21.1308755588       32.0624264430
 Si        23.8555185487       26.6031047958       15.6622763018
 Si        23.8642722200       26.6067606104       21.1358407708
 Si        23.8937112467       26.6195099410       26.6195321948
 Si        23.8647574644       26.6121746157       32.0813467734
 Si        23.8700819289       32.0668153288       15.6796692417
 Si        23.8692334918       32.0624190157       21.1308562678
 Si        23.8648448234       32.0813034394       26.6121643362
 Si        29.3492796706       15.6508028590       15.6507117803
 Si        29.3558081779       15.6442634662       21.1223128024
 Si        29.3152651264       15.6846994355       26.5713605434
 Si        29.3557730245       21.1222736499       15.6441963626
 Si        29.3529441673       21.1205843574       21.1206933633
 Si        29.3378048989       21.1445238699       26.6031883633
 Si        29.3203824350       21.1299868244       32.0668788131
 Si        29.3153295528       26.5712653830       15.6847921246
 Si        29.3377947017       26.6031298114       21.1445197652
 Si        29.3955279292       26.6423008129       26.6425189088
 Si        29.3559526665       26.3096698829       32.3838007439
 Si        29.3204317454       32.0668175552       21.1300057233
 Si        29.3561690548       32.3851252808       26.3081861131
 Si        15.6847154393       15.6847487619       18.4287768588
 Si        15.6441973840       15.6442866777       23.8777976610
 Si        15.6507222798       15.6507409458       29.3493647327
 Si        15.6796524710       21.1299773110       12.9332489515
 Si        15.6622341088       21.1445413514       18.3969329058
 Si        15.6470805755       21.1205960183       23.8794459484
 Si        15.6442617902       21.1222686059       29.3558592669
 Si        15.6438265102       26.3078619049       12.6147178401
 Si        15.6045340390       26.6424681327       18.3577605661
 Si        15.6622924303       26.6030788904       23.8555677908
 Si        15.6847567250       26.5713205474       29.3153145628
 Si        15.6443193398       32.3834574812       18.6898362703
 Si        15.6796564898       32.0668612842       23.8700347289
 Si        21.1300032308       15.6796614755       12.9331983137
 Si        21.1444484476       15.6622297148       18.3969653986
 Si        21.1205992496       15.6471178831       23.8794567819
 Si        21.1222680403       15.6442089554       29.3557988433
 Si        21.1308778381       21.1308190266       12.9376529319
 Si        21.1357689661       21.1357663036       18.3932500982
 Si        21.1284453402       21.1284101384       23.8715794520
 Si        21.1205974642       21.1206146202       29.3529412142
 Si        21.1351638852       26.6121823990       12.9188051061
 Si        21.1064071673       26.6194267652       18.3804921929
 Si        21.1357727089       26.6067695763       23.8642470614
 Si        21.1444970549       26.6030333300       29.3377791504
 Si        21.1352889073       32.0813438490       18.3879131728
 Si        21.1308261545       32.0623846464       23.8692290033
 Si        21.1300353193       32.0668287840       29.3203910344
 Si        26.3100994761       15.6441597195       12.6166003807
 Si        26.6423027460       15.6045315472       18.3575913472
 Si        26.6031000454       15.6622575147       23.8555420086
 Si        26.5712766415       15.6847164326       29.3153218002
 Si        26.6121221399       21.1352628077       12.9187504312
 Si        26.6195752179       21.1063465558       18.3806190883
 Si        26.6068142666       21.1357304242       23.8643101378
 Si        26.6030562191       21.1444926091       29.3378450140
 Si        26.5895368963       26.5895143496       12.9536605828
 Si        26.5981489231       26.5981383075       18.4019580329
 Si        26.6195374763       26.6195148416       23.8937627791
 Si        26.6423047315       26.6424104782       29.3955206685
 Si        26.5895631175       32.0463755758       18.4105510400
 Si        26.6121635344       32.0813151568       23.8648007152
 Si        26.3095140668       32.3838801601       29.3560381975
 Si        32.3855258416       15.6436765303       18.6925358118
 Si        32.0668171480       15.6796022294       23.8701031553
 Si        32.0812495194       21.1351599774       18.3879180997
 Si        32.0624088368       21.1308267160       23.8692552826
 Si        32.0668280685       21.1299680018       29.3204353218
 Si        32.0464749344       26.5894670295       18.4105831942
 Si        32.0812819649       26.6121695024       23.8648684961
 Si        32.3850817618       26.3080757088       29.3562988521
  